<?xml version="1.0" encoding="UTF-8"?>

<!-- generated on 2025-12-07 18:59:52 by Eclipse SUMO netconvert Version 1.18.0
<configuration xmlns:xsi="http://www.w3.org/2001/XMLSchema-instance" xsi:noNamespaceSchemaLocation="http://sumo.dlr.de/xsd/netconvertConfiguration.xsd">

    <input>
        <sumo-net-file value="bucharest.net.xml"/>
    </input>

    <output>
        <plain-output-prefix value="bucharest"/>
    </output>

    <processing>
        <geometry.min-radius.fix.railways value="false"/>
        <geometry.max-grade.fix value="false"/>
        <offset.disable-normalization value="true"/>
        <lefthand value="0"/>
    </processing>

    <junctions>
        <no-turnarounds value="true"/>
        <junctions.corner-detail value="5"/>
        <junctions.limit-turn-speed value="5.50"/>
        <rectangular-lane-cut value="0"/>
    </junctions>

    <pedestrian>
        <walkingareas value="0"/>
    </pedestrian>

</configuration>
-->

<edges version="1.16" xmlns:xsi="http://www.w3.org/2001/XMLSchema-instance" xsi:noNamespaceSchemaLocation="http://sumo.dlr.de/xsd/edges_file.xsd">
    <location netOffset="-428439.51,-4919554.83" convBoundary="0.00,0.00,2518.43,928.55" origBoundary="26.086093,44.366053,26.145688,44.481060" projParameter="+proj=utm +zone=35 +ellps=WGS84 +datum=WGS84 +units=m +no_defs"/>

    <edge id="-1102792456#1" from="8312197072" to="248728929" priority="2" type="highway.living_street" numLanes="1" speed="13.89" shape="362.88,814.38 368.48,811.47 372.46,807.13 374.99,802.82" disallow="tram rail_urban rail rail_electric rail_fast ship"/>
    <edge id="-1117820481#0" from="154261507" to="11701832850" priority="10" type="highway.tertiary" numLanes="1" speed="13.89" shape="1572.23,570.03 1564.71,540.69 1561.12,526.49 1559.16,519.73 1557.37,513.51" disallow="tram rail_urban rail rail_electric rail_fast ship"/>
    <edge id="-1117820481#2" from="154261511" to="154261507" priority="10" type="highway.tertiary" numLanes="1" speed="13.89" shape="1576.27,675.58 1575.51,646.70 1573.65,598.78 1573.60,591.57 1573.32,582.54 1572.23,570.03" disallow="tram rail_urban rail rail_electric rail_fast ship"/>
    <edge id="-1117820481#3" from="2584900996" to="154261511" priority="10" type="highway.tertiary" numLanes="1" speed="13.89" shape="1580.97,730.86 1579.15,714.79 1578.01,702.98 1577.07,690.17 1576.27,675.58" disallow="tram rail_urban rail rail_electric rail_fast ship"/>
    <edge id="-1117820481#4" from="cluster_11360886932_11360886933_154261518_3288321448_#3more" to="2584900996" priority="10" type="highway.tertiary" numLanes="1" speed="13.89" shape="1586.91,769.95 1584.79,758.30 1582.90,746.53 1580.97,730.86" disallow="tram rail_urban rail rail_electric rail_fast ship"/>
    <edge id="-1258763737#0" from="248726773" to="11701832085" priority="10" type="highway.tertiary" numLanes="1" speed="13.89" shape="1102.86,586.29 1113.22,532.35 1113.98,526.38 1114.74,519.80" disallow="tram rail_urban rail rail_electric rail_fast ship"/>
    <edge id="-1258763737#1" from="248726774" to="248726773" priority="10" type="highway.tertiary" numLanes="1" speed="13.89" disallow="tram rail_urban rail rail_electric rail_fast ship"/>
    <edge id="-1258763737#2" from="248727704" to="248726774" priority="10" type="highway.tertiary" numLanes="1" speed="13.89" disallow="tram rail_urban rail rail_electric rail_fast ship"/>
    <edge id="-1258765984#0" from="989077057" to="cluster_248735817_248735841" priority="3" type="highway.residential" numLanes="1" speed="13.89" shape="1397.45,346.72 1382.21,347.58 1365.70,347.83 1340.91,346.77 1325.11,344.91 1298.94,342.02 1279.82,338.85 1270.90,336.69 1264.37,333.79 1259.76,329.79" disallow="tram rail_urban rail rail_electric rail_fast ship"/>
    <edge id="-1258765984#1" from="11701520689" to="989077057" priority="3" type="highway.residential" numLanes="1" speed="13.89" shape="1463.05,337.17 1455.56,338.69 1440.48,341.37 1425.59,343.73 1410.58,345.68 1397.45,346.72" disallow="tram rail_urban rail rail_electric rail_fast ship"/>
    <edge id="-1258765985" from="2386604063" to="154259583" priority="10" type="highway.tertiary" numLanes="1" speed="13.89" shape="1454.03,291.00 1451.75,276.77 1447.83,250.43 1445.06,231.09 1442.62,217.19 1441.33,207.35 1440.63,200.87 1441.29,191.44 1445.56,183.25" disallow="tram rail_urban rail rail_electric rail_fast ship"/>
    <edge id="-1259367082#0" from="154261503" to="154261501" priority="10" type="highway.tertiary" numLanes="1" speed="13.89" shape="1529.11,413.60 1524.39,402.80 1520.16,394.34 1515.33,385.86" disallow="tram rail_urban rail rail_electric rail_fast ship"/>
    <edge id="-1259367082#1" from="11701832845" to="154261503" priority="10" type="highway.tertiary" numLanes="1" speed="13.89" shape="1552.82,498.10 1551.32,492.51 1549.82,486.91 1536.04,438.91 1529.11,413.60" disallow="tram rail_urban rail rail_electric rail_fast ship"/>
    <edge id="-1357054601#4" from="965157852" to="cluster_9015383178_9088160176_9088160177_9088160180" priority="3" type="highway.residential" numLanes="1" speed="13.89" shape="660.52,506.20 639.10,540.09 631.26,552.49 626.00,560.83" disallow="tram rail_urban rail rail_electric rail_fast ship"/>
    <edge id="-1380801989#4" from="cluster_134860954_318820568" to="248726571" priority="3" type="highway.residential" numLanes="1" speed="13.89" shape="873.96,272.79 886.24,280.55 893.18,284.93 903.62,291.52 927.32,306.47 990.16,346.14 996.00,349.50" disallow="tram rail_urban rail rail_electric rail_fast ship"/>
    <edge id="-1380801990" from="2606247721" to="776142019" priority="3" type="highway.residential" numLanes="1" speed="13.89" disallow="tram rail_urban rail rail_electric rail_fast ship"/>
    <edge id="-1394494019" from="12909016981" to="11189079178" priority="3" type="highway.residential" numLanes="1" speed="13.89" disallow="tram rail_urban rail rail_electric rail_fast ship"/>
    <edge id="-1430504273#0" from="248726570" to="248726571" priority="3" type="highway.residential" numLanes="1" speed="13.89" shape="909.85,434.90 990.54,356.11 996.00,349.50" disallow="tram rail_urban rail rail_electric rail_fast ship"/>
    <edge id="-1430504273#1" from="1858219476" to="248726570" priority="3" type="highway.residential" numLanes="1" speed="13.89" disallow="tram rail_urban rail rail_electric rail_fast ship"/>
    <edge id="-1430504274#2" from="248726576" to="708350914" priority="3" type="highway.residential" numLanes="1" speed="13.89" shape="1136.44,182.09 1140.00,175.53 1145.44,137.28 1146.52,128.61 1149.10,103.07 1149.58,93.80 1148.72,65.50 1148.14,54.99" disallow="tram rail_urban rail rail_electric rail_fast ship"/>
    <edge id="-153964133#1" from="6291998706" to="cluster_1858219470_479155100" priority="11" type="highway.secondary" numLanes="2" speed="13.89" shape="829.37,489.42 827.98,478.85 827.37,469.74 827.59,456.74 829.40,442.76 830.17,437.82 841.18,396.42 843.36,388.21" disallow="tram rail_urban rail rail_electric rail_fast ship"/>
    <edge id="-174965593" from="248728931" to="8312197068" priority="3" type="highway.residential" numLanes="1" speed="13.89" shape="375.78,887.76 375.43,853.53 375.12,815.25" disallow="tram rail_urban rail rail_electric rail_fast ship"/>
    <edge id="-186700934" from="1974412293" to="1974412446" priority="3" type="highway.residential" numLanes="1" speed="13.89" disallow="tram rail_urban rail rail_electric rail_fast ship"/>
    <edge id="-209747739" from="2199386332" to="2199386333" priority="3" type="highway.residential" numLanes="1" speed="13.89" disallow="tram rail_urban rail rail_electric rail_fast ship"/>
    <edge id="-210234372#0" from="2203290711" to="2203290710" priority="3" type="highway.residential" numLanes="1" speed="13.89" disallow="tram rail_urban rail rail_electric rail_fast ship"/>
    <edge id="-210234372#1" from="cluster_248730549_9084649617_9084649618_9084649619" to="2203290711" priority="3" type="highway.residential" numLanes="1" speed="13.89" shape="2128.24,689.89 2129.48,695.98 2130.57,703.11 2132.29,719.90 2132.53,730.83" disallow="tram rail_urban rail rail_electric rail_fast ship"/>
    <edge id="-210234374#2" from="2203290711" to="11612247571" priority="3" type="highway.residential" numLanes="1" speed="13.89" shape="2132.53,730.83 2120.96,731.90 2115.35,732.47 2069.25,738.04 2040.73,741.70" disallow="tram rail_urban rail rail_electric rail_fast ship"/>
    <edge id="-217137329" from="2264405578" to="2264405576" priority="2" type="highway.living_street" numLanes="1" speed="8.33" disallow="tram rail_urban rail rail_electric rail_fast ship"/>
    <edge id="-218056920" from="2273589842" to="2273589836" priority="2" type="highway.living_street" numLanes="1" speed="13.89" disallow="tram rail_urban rail rail_electric rail_fast ship"/>
    <edge id="-218680176#1" from="979520403" to="578689" priority="3" type="highway.residential" numLanes="1" speed="13.89" shape="1770.31,109.17 1764.20,26.30 1763.44,15.71 1762.15,0.00" disallow="tram rail_urban rail rail_electric rail_fast ship"/>
    <edge id="-229237523#0" from="248726136" to="1814941267" priority="10" type="highway.tertiary" numLanes="1" speed="13.89" shape="630.15,288.83 641.75,281.79 650.11,277.57 656.74,274.94 664.03,272.57 673.65,270.58 683.96,269.10 699.41,267.56" disallow="tram rail_urban rail rail_electric rail_fast ship"/>
    <edge id="-229237523#1" from="3875075885" to="248726136" priority="10" type="highway.tertiary" numLanes="1" speed="13.89" shape="595.99,319.64 602.71,311.67 611.02,303.64 620.20,296.02 630.15,288.83" disallow="tram rail_urban rail rail_electric rail_fast ship"/>
    <edge id="-230067311#0" from="257716920" to="8312197072" priority="2" type="highway.living_street" numLanes="1" speed="13.89" disallow="tram rail_urban rail rail_electric rail_fast ship"/>
    <edge id="-230067427#2" from="973114571" to="248728928" priority="2" type="highway.living_street" numLanes="1" speed="13.89" shape="283.52,707.32 288.47,708.07 327.79,713.19 367.93,718.62" disallow="tram rail_urban rail rail_electric rail_fast ship"/>
    <edge id="-23049602#0" from="248726577" to="248726576" priority="3" type="highway.residential" numLanes="1" speed="13.89" shape="1180.46,213.63 1170.72,206.66 1140.60,185.07 1136.44,182.09" disallow="tram rail_urban rail rail_electric rail_fast ship"/>
    <edge id="-23049602#1" from="cluster_248735817_248735841" to="248726577" priority="3" type="highway.residential" numLanes="1" speed="13.89" shape="1251.46,312.00 1248.44,301.83 1245.89,293.23 1241.22,276.05 1239.46,271.28 1237.35,265.57 1233.66,259.38 1222.87,248.63 1192.50,223.56 1180.46,213.63" disallow="tram rail_urban rail rail_electric rail_fast ship"/>
    <edge id="-23049908#1" from="248728920" to="257716920" priority="2" type="highway.living_street" numLanes="1" speed="13.89" shape="325.17,893.97 329.03,889.07 332.14,882.96 334.97,870.74 339.19,846.96 343.77,817.17 344.55,812.23" disallow="tram rail_urban rail rail_electric rail_fast ship"/>
    <edge id="-23049910#1" from="672078072" to="4178052022" priority="10" type="highway.tertiary" numLanes="1" speed="13.89" shape="448.87,767.80 462.89,789.90 478.63,814.88 482.02,820.06 485.38,825.21" disallow="tram rail_urban rail rail_electric rail_fast ship"/>
    <edge id="-23049910#3" from="248728927" to="672078072" priority="10" type="highway.tertiary" numLanes="1" speed="13.89" shape="416.62,726.76 421.43,730.30 427.49,736.09 431.34,740.52 434.17,744.63 437.38,749.94 448.87,767.80" disallow="tram rail_urban rail rail_electric rail_fast ship"/>
    <edge id="-23050045#0" from="2279089977" to="574821" priority="11" type="highway.secondary" numLanes="1" speed="13.89" shape="1306.47,821.34 1277.30,822.79 1248.78,823.86 1237.35,824.15 1217.99,824.15 1209.27,823.58 1200.57,822.67" disallow="tram rail_urban rail rail_electric rail_fast ship"/>
    <edge id="-23050045#1" from="248729693" to="2279089977" priority="11" type="highway.secondary" numLanes="1" speed="13.89" disallow="tram rail_urban rail rail_electric rail_fast ship"/>
    <edge id="-23050045#2" from="248729695" to="248729693" priority="11" type="highway.secondary" numLanes="1" speed="13.89" shape="1482.50,808.62 1428.35,813.15 1374.46,816.07 1352.60,817.76" disallow="tram rail_urban rail rail_electric rail_fast ship"/>
    <edge id="-23050052#1" from="256207320" to="249664197" priority="3" type="highway.residential" numLanes="1" speed="13.89" shape="1784.23,852.00 1813.76,787.87 1815.87,775.89 1817.28,765.03 1815.98,756.99 1814.36,747.74" disallow="tram rail_urban rail rail_electric rail_fast ship"/>
    <edge id="-23050189#1" from="248730523" to="248730521" priority="3" type="highway.residential" numLanes="1" speed="13.89" shape="1698.12,770.60 1697.91,775.60 1695.52,832.43 1693.86,840.48 1691.39,848.28 1682.45,871.39 1679.94,877.90" disallow="tram rail_urban rail rail_electric rail_fast ship"/>
    <edge id="-23050190#2" from="248730742" to="cluster_248729711_9084649632_9084649633_9084649670" priority="10" type="highway.tertiary" numLanes="1" speed="13.89" shape="1999.55,550.58 1990.08,651.38 1987.98,669.20 1984.46,702.12 1983.80,708.41" disallow="tram rail_urban rail rail_electric rail_fast ship"/>
    <edge id="-23050190#3" from="248730532" to="248730742" priority="10" type="highway.tertiary" numLanes="1" speed="13.89" shape="2004.52,514.11 2003.08,526.41 1999.55,550.58" disallow="tram rail_urban rail rail_electric rail_fast ship"/>
    <edge id="-23050192#0" from="1674584224" to="cluster_248730549_9084649617_9084649618_9084649619" priority="3" type="highway.residential" numLanes="1" speed="13.89" shape="2118.66,640.43 2118.87,645.41 2123.55,670.90 2124.79,676.92" disallow="tram rail_urban rail rail_electric rail_fast ship"/>
    <edge id="-23050192#1" from="248730541" to="1674584224" priority="3" type="highway.residential" numLanes="1" speed="13.89" disallow="tram rail_urban rail rail_electric rail_fast ship"/>
    <edge id="-23050198" from="248730614" to="248730622" priority="3" type="highway.residential" numLanes="1" speed="13.89" shape="1611.21,407.62 1615.21,400.63 1651.03,341.16 1654.40,335.56" disallow="tram rail_urban rail rail_electric rail_fast ship"/>
    <edge id="-23050209#1" from="1743357786" to="248730740" priority="3" type="highway.residential" numLanes="1" speed="13.89" shape="1808.69,637.83 1839.23,632.98 1939.86,616.41" disallow="tram rail_urban rail rail_electric rail_fast ship"/>
    <edge id="-23050209#2" from="248730737" to="1743357786" priority="3" type="highway.residential" numLanes="1" speed="13.89" disallow="tram rail_urban rail rail_electric rail_fast ship"/>
    <edge id="-23050209#3" from="154261511" to="248730737" priority="3" type="highway.residential" numLanes="1" speed="13.89" shape="1576.27,675.58 1582.58,674.52 1697.72,655.12" disallow="tram rail_urban rail rail_electric rail_fast ship"/>
    <edge id="-23050678#3" from="248735809" to="154259583" priority="3" type="highway.residential" numLanes="1" speed="13.89" shape="1609.58,122.11 1603.05,128.14 1562.41,164.39 1554.74,168.89 1546.86,173.01 1536.22,176.78 1526.60,178.47 1470.40,181.67 1445.56,183.25" disallow="tram rail_urban rail rail_electric rail_fast ship"/>
    <edge id="-23050678#4" from="989084782" to="248735809" priority="3" type="highway.residential" numLanes="1" speed="13.89" shape="1668.76,92.29 1656.84,94.04 1644.36,98.01 1637.01,101.56 1630.09,105.42 1621.29,111.64 1609.58,122.11" disallow="tram rail_urban rail rail_electric rail_fast ship"/>
    <edge id="-23050679" from="cluster_248735817_248735841" to="248735812" priority="3" type="highway.residential" numLanes="1" speed="13.89" shape="1251.46,312.00 1240.96,312.46 1156.17,316.18" disallow="tram rail_urban rail rail_electric rail_fast ship"/>
    <edge id="-23050740" from="248730610" to="248736269" priority="3" type="highway.residential" numLanes="1" speed="8.33" disallow="tram rail_urban rail rail_electric rail_fast ship"/>
    <edge id="-23115964#0" from="249680326" to="932248390" priority="10" type="highway.tertiary" numLanes="1" speed="13.89" shape="637.92,774.19 617.58,821.31 606.55,846.28 604.10,851.23" disallow="tram rail_urban rail rail_electric rail_fast ship"/>
    <edge id="-23115964#1" from="248728415" to="249680326" priority="10" type="highway.tertiary" numLanes="1" speed="13.89" disallow="tram rail_urban rail rail_electric rail_fast ship"/>
    <edge id="-23115964#3" from="cluster_248726314_9088160137_9088160145_9088160146" to="248728415" priority="10" type="highway.tertiary" numLanes="1" speed="13.89" shape="690.35,617.21 686.23,622.80 658.82,661.33 655.95,666.25 653.73,671.22 652.64,676.36" disallow="tram rail_urban rail rail_electric rail_fast ship"/>
    <edge id="-23116300#0" from="254398078" to="248726577" priority="10" type="highway.tertiary" numLanes="1" speed="13.89" shape="1349.58,190.32 1288.72,195.85 1201.04,208.50 1189.45,210.89 1180.46,213.63" disallow="tram rail_urban rail rail_electric rail_fast ship"/>
    <edge id="-23116300#1" from="249563293" to="254398078" priority="10" type="highway.tertiary" numLanes="1" speed="13.89" disallow="tram rail_urban rail rail_electric rail_fast ship"/>
    <edge id="-23116300#3" from="154259583" to="249563293" priority="10" type="highway.tertiary" numLanes="1" speed="13.89" shape="1445.56,183.25 1431.12,184.24 1390.37,187.18" disallow="tram rail_urban rail rail_electric rail_fast ship"/>
    <edge id="-23116325#0" from="256209951" to="2606247721" priority="3" type="highway.residential" numLanes="1" speed="13.89" disallow="tram rail_urban rail rail_electric rail_fast ship"/>
    <edge id="-23116325#2" from="2279089977" to="256209951" priority="3" type="highway.residential" numLanes="1" speed="13.89" shape="1306.47,821.34 1304.93,816.58 1303.38,811.82 1300.61,803.34 1292.25,782.43 1283.55,761.82 1280.19,755.71 1276.21,751.40 1270.90,748.53 1261.03,744.75" disallow="tram rail_urban rail rail_electric rail_fast ship"/>
    <edge id="-23123780#0" from="248730559" to="248730537" priority="10" type="highway.tertiary" numLanes="1" speed="13.89" shape="1900.82,510.56 1830.28,509.58 1817.43,509.40" disallow="tram rail_urban rail rail_electric rail_fast ship"/>
    <edge id="-23123780#1" from="248730532" to="248730559" priority="10" type="highway.tertiary" numLanes="1" speed="13.89" shape="2004.52,514.11 1994.53,513.69 1911.18,510.78 1900.82,510.56" disallow="tram rail_urban rail rail_electric rail_fast ship"/>
    <edge id="-23123940" from="2267964790" to="1674584224" priority="3" type="highway.residential" numLanes="1" speed="13.89" shape="2185.62,629.90 2180.76,629.96 2118.66,640.43" disallow="tram rail_urban rail rail_electric rail_fast ship"/>
    <edge id="-23124002" from="248730742" to="248730740" priority="3" type="highway.residential" numLanes="1" speed="13.89" shape="1999.55,550.58 1993.26,549.37 1962.74,548.13 1961.65,575.37 1959.38,585.64 1955.37,595.97 1948.24,606.84 1939.86,616.41" disallow="tram rail_urban rail rail_electric rail_fast ship"/>
    <edge id="-23124003#0" from="248730740" to="248730742" priority="3" type="highway.residential" numLanes="1" speed="13.89" shape="1939.86,616.41 1948.24,606.84 1955.37,595.97 1959.38,585.64 1961.65,575.37 1962.74,548.13 1993.26,549.37 1999.55,550.58" disallow="tram rail_urban rail rail_electric rail_fast ship"/>
    <edge id="-23124003#3" from="1743357802" to="248730740" priority="3" type="highway.residential" numLanes="1" speed="13.89" shape="1940.13,682.17 1938.91,670.39 1938.52,665.40 1938.70,646.19 1939.86,616.41" disallow="tram rail_urban rail rail_electric rail_fast ship"/>
    <edge id="-23124121" from="154261501" to="6279013373" priority="10" type="highway.tertiary" numLanes="1" speed="13.89" disallow="tram rail_urban rail rail_electric rail_fast ship"/>
    <edge id="-23124137#2" from="248730618" to="256210630" priority="3" type="highway.residential" numLanes="1" speed="13.89" shape="1817.53,448.54 1825.40,450.18 1851.57,455.63 1864.22,459.25 1876.76,463.81 1902.13,476.23" disallow="tram rail_urban rail rail_electric rail_fast ship"/>
    <edge id="-23124137#3" from="2335517713" to="248730618" priority="3" type="highway.residential" numLanes="1" speed="13.89" shape="1770.82,439.51 1797.88,444.66 1808.18,446.70 1817.53,448.54" disallow="tram rail_urban rail rail_electric rail_fast ship"/>
    <edge id="-23124137#4" from="248730614" to="2335517713" priority="3" type="highway.residential" numLanes="1" speed="13.89" shape="1611.21,407.62 1657.32,416.80 1770.82,439.51" disallow="tram rail_urban rail rail_electric rail_fast ship"/>
    <edge id="-23124137#6" from="248735885" to="248730614" priority="3" type="highway.residential" numLanes="1" speed="13.89" shape="1571.07,398.76 1586.13,402.09 1611.21,407.62" disallow="tram rail_urban rail rail_electric rail_fast ship"/>
    <edge id="-23124204#0" from="1974412446" to="11701520688" priority="3" type="highway.residential" numLanes="1" speed="13.89" shape="1579.47,316.12 1565.94,315.41 1555.63,316.35 1543.68,318.62 1520.41,323.19 1491.69,330.25 1484.67,332.68" disallow="tram rail_urban rail rail_electric rail_fast ship"/>
    <edge id="-23124204#1" from="248730622" to="1974412446" priority="3" type="highway.residential" numLanes="1" speed="13.89" shape="1654.40,335.56 1611.43,323.83 1579.47,316.12" disallow="tram rail_urban rail rail_electric rail_fast ship"/>
    <edge id="-23124313#1" from="cluster_1674584496_1674584513" to="248729695" priority="3" type="highway.residential" numLanes="1" speed="13.89" shape="1470.40,691.64 1481.75,799.31 1482.50,808.62" disallow="tram rail_urban rail rail_electric rail_fast ship"/>
    <edge id="-23124314#1" from="cluster_1674584496_1674584513" to="248729693" priority="3" type="highway.residential" numLanes="1" speed="13.89" shape="1458.60,688.26 1357.75,807.83 1354.72,813.26 1352.60,817.76" disallow="tram rail_urban rail rail_electric rail_fast ship"/>
    <edge id="-23125589#0" from="257718503" to="248728934" priority="10" type="highway.tertiary" numLanes="1" speed="13.89" shape="390.44,586.13 379.99,594.60 366.92,605.83 362.30,611.44 358.92,617.99" disallow="tram rail_urban rail rail_electric rail_fast ship"/>
    <edge id="-23125589#1" from="257716196" to="257718503" priority="10" type="highway.tertiary" numLanes="1" speed="13.89" shape="416.69,561.72 411.20,567.77 404.57,574.06 399.05,578.86 390.44,586.13" disallow="tram rail_urban rail rail_electric rail_fast ship"/>
    <edge id="-231940317#0" from="256210258" to="248727721" priority="11" type="highway.secondary" numLanes="1" speed="13.89" disallow="tram rail_urban rail rail_electric rail_fast ship"/>
    <edge id="-231940317#1" from="256210253" to="256210258" priority="11" type="highway.secondary" numLanes="1" speed="13.89" shape="1030.20,796.13 1045.14,798.33 1058.74,800.58" disallow="tram rail_urban rail rail_electric rail_fast ship"/>
    <edge id="-231940317#4" from="256207130" to="256210253" priority="11" type="highway.secondary" numLanes="1" speed="13.89" shape="947.82,784.18 971.30,787.60 999.16,791.67 1012.06,793.55 1017.10,794.30 1022.03,795.12 1030.20,796.13" disallow="tram rail_urban rail rail_electric rail_fast ship"/>
    <edge id="-231940317#5" from="129516014" to="256207130" priority="11" type="highway.secondary" numLanes="1" speed="13.89" shape="921.89,779.31 927.03,780.91 934.97,782.34 940.86,783.24 947.82,784.18" disallow="tram rail_urban rail rail_electric rail_fast ship"/>
    <edge id="-23491514" from="965111149" to="254397297" priority="3" type="highway.residential" numLanes="1" speed="13.89" shape="443.90,266.84 417.03,251.37 408.51,246.38 404.00,243.78 389.99,235.87 385.73,233.25 378.36,229.00" disallow="tram rail_urban rail rail_electric rail_fast ship"/>
    <edge id="-23492047#1" from="249563293" to="254397983" priority="3" type="highway.residential" numLanes="1" speed="13.89" shape="1390.37,187.18 1383.85,161.32 1371.24,107.77" disallow="tram rail_urban rail rail_electric rail_fast ship"/>
    <edge id="-236238102#1" from="932331536" to="134860939" priority="11" type="highway.secondary" numLanes="2" speed="13.89" shape="846.69,679.00 838.55,700.80 835.45,708.17" disallow="tram rail_urban rail rail_electric rail_fast ship"/>
    <edge id="-236434386#2" from="249682772" to="248728928" priority="2" type="highway.living_street" numLanes="1" speed="13.89" shape="378.86,693.99 379.50,699.44 377.11,706.55 375.13,711.48 371.82,715.55 367.93,718.62" disallow="tram rail_urban rail rail_electric rail_fast ship"/>
    <edge id="-236434387#1" from="248728927" to="249682772" priority="10" type="highway.tertiary" numLanes="1" speed="13.89" shape="416.62,726.76 410.06,722.02 404.31,717.91 396.83,712.01 392.03,707.92 385.93,702.06 382.01,697.88 378.86,693.99" disallow="tram rail_urban rail rail_electric rail_fast ship"/>
    <edge id="-236434681#3" from="248728934" to="249682772" priority="10" type="highway.tertiary" numLanes="1" speed="13.89" shape="358.92,617.99 356.88,626.80 356.83,632.86 357.96,639.08 359.10,644.56 361.08,652.88 363.13,662.06 364.68,667.84 366.74,673.95 368.82,678.66 371.62,684.06 375.28,689.34 378.86,693.99" disallow="tram rail_urban rail rail_electric rail_fast ship"/>
    <edge id="-23648805#1" from="256207131" to="256207130" priority="3" type="highway.residential" numLanes="1" speed="13.89" shape="932.75,873.15 935.65,848.82 946.91,789.10 947.82,784.18" disallow="tram rail_urban rail rail_electric rail_fast ship"/>
    <edge id="-23649013" from="256209951" to="256209948" priority="3" type="highway.residential" numLanes="1" speed="13.89" shape="1261.03,744.75 1269.01,730.56 1274.39,727.47 1322.52,721.21" disallow="tram rail_urban rail rail_electric rail_fast ship"/>
    <edge id="-23649025#0" from="256210260" to="256210252" priority="3" type="highway.residential" numLanes="1" speed="13.89" disallow="tram rail_urban rail rail_electric rail_fast ship"/>
    <edge id="-23649025#2" from="256210253" to="256210260" priority="3" type="highway.residential" numLanes="1" speed="13.89" shape="1030.20,796.13 1030.66,791.15 1031.59,781.02 1035.15,729.81" disallow="tram rail_urban rail rail_electric rail_fast ship"/>
    <edge id="-23649027#1" from="256210260" to="256210258" priority="3" type="highway.residential" numLanes="1" speed="13.89" shape="1035.15,729.81 1057.16,734.31 1062.67,739.03 1063.49,744.92 1059.97,785.59 1059.15,795.59 1058.74,800.58" disallow="tram rail_urban rail rail_electric rail_fast ship"/>
    <edge id="-23649061" from="256210610" to="256210609" priority="3" type="highway.residential" numLanes="1" speed="13.89" disallow="tram rail_urban rail rail_electric rail_fast ship"/>
    <edge id="-23785501#2" from="1856040754" to="257718503" priority="3" type="highway.residential" numLanes="1" speed="8.33" shape="458.23,638.87 453.28,636.18 449.21,633.28 394.25,589.37 390.44,586.13" disallow="tram rail_urban rail rail_electric rail_fast ship"/>
    <edge id="-23785503#5" from="4153705585" to="cluster_4997256427_9088160166_9088160167_9088160168" priority="3" type="highway.residential" numLanes="1" speed="13.89" shape="526.73,640.95 542.10,597.37 545.33,589.67 548.25,584.57 554.82,574.08 567.57,553.79 575.11,541.78" disallow="tram rail_urban rail rail_electric rail_fast ship"/>
    <edge id="-241113068#1" from="5235101504" to="248728927" priority="3" type="highway.residential" numLanes="1" speed="13.89" shape="396.50,723.78 411.67,726.03 416.62,726.76" disallow="tram rail_urban rail rail_electric rail_fast ship"/>
    <edge id="-242073870#1" from="256210610" to="154261507" priority="3" type="highway.residential" numLanes="1" speed="13.89" shape="1478.20,569.54 1495.93,572.13 1514.50,574.22 1528.87,574.34 1541.14,574.08 1554.67,573.10 1562.75,572.02 1572.23,570.03" disallow="tram rail_urban rail rail_electric rail_fast ship"/>
    <edge id="-250284752#1" from="248730737" to="248730523" priority="3" type="highway.residential" numLanes="1" speed="13.89" shape="1697.72,655.12 1698.41,762.10 1698.12,770.60" disallow="tram rail_urban rail rail_electric rail_fast ship"/>
    <edge id="-250476465#0" from="256210630" to="248730564" priority="3" type="highway.residential" numLanes="1" speed="13.89" disallow="tram rail_urban rail rail_electric rail_fast ship"/>
    <edge id="-250476465#1" from="248730559" to="256210630" priority="3" type="highway.residential" numLanes="1" speed="13.89" shape="1900.82,510.56 1901.24,502.19 1902.13,476.23" disallow="tram rail_urban rail rail_electric rail_fast ship"/>
    <edge id="-250476471" from="272632798" to="989084827" priority="3" type="highway.residential" numLanes="1" speed="13.89" shape="2043.17,47.73 2035.02,96.82 2032.63,101.21 2026.10,105.72 2020.80,106.83 2012.70,106.39 1993.19,231.37" disallow="tram rail_urban rail rail_electric rail_fast ship"/>
    <edge id="-252334761#1" from="248730523" to="cluster_11360886932_11360886933_154261518_3288321448_#3more" priority="11" type="highway.secondary" numLanes="1" speed="13.89" shape="1698.12,770.60 1668.88,776.71 1626.99,785.22 1617.60,787.33 1612.70,788.34 1607.03,789.49" disallow="tram rail_urban rail rail_electric rail_fast ship"/>
    <edge id="-252334761#3" from="249664197" to="248730523" priority="11" type="highway.secondary" numLanes="1" speed="13.89" shape="1814.36,747.74 1805.44,749.00 1796.80,750.65 1733.43,763.17 1698.12,770.60" disallow="tram rail_urban rail rail_electric rail_fast ship"/>
    <edge id="-252342142#2" from="134860939" to="9088160159" priority="11" type="highway.secondary" numLanes="1" speed="13.89" shape="835.45,708.17 831.34,715.38 828.06,721.14" disallow="tram rail_urban rail rail_electric rail_fast ship"/>
    <edge id="-252430463" from="2584900996" to="2584900997" priority="2" type="highway.living_street" numLanes="1" speed="5.56" shape="1580.97,730.86 1590.26,729.43 1600.22,728.11 1611.72,727.27 1628.20,727.34" disallow="tram rail_urban rail rail_electric rail_fast ship"/>
    <edge id="-263391556" from="2380714872" to="257716111" priority="2" type="highway.living_street" numLanes="1" speed="13.89" disallow="tram rail_urban rail rail_electric rail_fast ship"/>