<?xml version="1.0" encoding="UTF-8"?>

<!-- generated on 2025-12-04 01:27:25 by Eclipse SUMO netconvert Version 1.18.0
<configuration xmlns:xsi="http://www.w3.org/2001/XMLSchema-instance" xsi:noNamespaceSchemaLocation="http://sumo.dlr.de/xsd/netconvertConfiguration.xsd">

    <input>
        <osm-files value="map.osm"/>
    </input>

    <output>
        <output-file value="bucharest.net.xml"/>
    </output>

    <projection>
        <proj.utm value="true"/>
    </projection>

    <processing>
        <geometry.remove value="true"/>
        <geometry.min-dist value="5"/>
        <roundabouts.guess value="true"/>
    </processing>

    <tls_building>
        <tls.discard-simple value="true"/>
        <tls.join value="true"/>
        <tls.guess-signals value="true"/>
    </tls_building>

    <ramp_guessing>
        <ramps.guess value="true"/>
    </ramp_guessing>

    <edge_removal>
        <keep-edges.by-vclass value="passenger"/>
        <remove-edges.isolated value="true"/>
    </edge_removal>

    <junctions>
        <junctions.join value="true"/>
    </junctions>

</configuration>
-->

<net version="1.16" junctionCornerDetail="5" limitTurnSpeed="5.50" xmlns:xsi="http://www.w3.org/2001/XMLSchema-instance" xsi:noNamespaceSchemaLocation="http://sumo.dlr.de/xsd/net_file.xsd">

    <location netOffset="-428439.51,-4919554.83" convBoundary="0.00,0.00,2518.43,928.55" origBoundary="26.086093,44.366053,26.145688,44.481060" projParameter="+proj=utm +zone=35 +ellps=WGS84 +datum=WGS84 +units=m +no_defs"/>

    <type id="highway.living_street" priority="2" numLanes="1" speed="2.78" disallow="tram rail_urban rail rail_electric rail_fast ship" oneway="0"/>
    <type id="highway.primary" priority="12" numLanes="2" speed="27.78" disallow="tram rail_urban rail rail_electric rail_fast ship" oneway="0"/>
    <type id="highway.primary_link" priority="7" numLanes="1" speed="22.22" disallow="tram rail_urban rail rail_electric rail_fast ship" oneway="0"/>
    <type id="highway.residential" priority="3" numLanes="1" speed="13.89" disallow="tram rail_urban rail rail_electric rail_fast ship" oneway="0"/>
    <type id="highway.secondary" priority="11" numLanes="1" speed="27.78" disallow="tram rail_urban rail rail_electric rail_fast ship" oneway="0"/>
    <type id="highway.secondary_link" priority="6" numLanes="1" speed="22.22" disallow="tram rail_urban rail rail_electric rail_fast ship" oneway="0"/>
    <type id="highway.tertiary" priority="10" numLanes="1" speed="22.22" disallow="tram rail_urban rail rail_electric rail_fast ship" oneway="0"/>

    <edge id=":10961755188_0" function="internal">
        <lane id=":10961755188_0_0" index="0" disallow="tram rail_urban rail rail_electric rail_fast ship" speed="8.70" length="9.62" shape="244.65,326.96 245.59,329.81 246.78,332.03 248.24,333.60 249.95,334.53"/>
    </edge>
    <edge id=":10961755188_1" function="internal">
        <lane id=":10961755188_1_0" index="0" disallow="pedestrian tram rail_urban rail rail_electric rail_fast ship" speed="15.28" length="16.75" shape="241.45,327.34 242.99,332.22 244.23,335.63 244.73,339.05 244.08,343.97"/>
        <lane id=":10961755188_1_1" index="1" disallow="pedestrian tram rail_urban rail rail_electric rail_fast ship" speed="15.28" length="16.75" shape="238.25,327.72 239.74,332.37 240.96,335.61 241.50,338.85 240.90,343.53"/>
    </edge>
    <edge id=":10961755188_3" function="internal">
        <lane id=":10961755188_3_0" index="0" disallow="pedestrian tram rail_urban rail rail_electric rail_fast ship" speed="13.89" length="15.94" shape="234.16,332.05 238.91,332.51 242.18,332.73 245.40,333.23 249.95,334.53"/>
        <lane id=":10961755188_3_1" index="1" disallow="pedestrian tram rail_urban rail rail_electric rail_fast ship" speed="13.89" length="15.94" shape="233.75,335.22 238.47,335.69 241.72,335.92 244.91,336.43 249.44,337.73"/>
        <lane id=":10961755188_3_2" index="2" disallow="pedestrian tram rail_urban rail rail_electric rail_fast ship" speed="13.89" length="15.94" shape="233.34,338.39 238.02,338.87 241.26,339.11 244.43,339.63 248.92,340.93"/>
    </edge>
    <edge id=":11189079178_0" function="internal">
        <lane id=":11189079178_0_0" index="0" disallow="tram rail_urban rail rail_electric rail_fast ship" speed="7.34" length="8.46" shape="1125.77,746.44 1124.29,745.61 1123.17,744.17 1122.41,742.09 1122.02,739.40"/>
    </edge>
    <edge id=":11189079178_1" function="internal">
        <lane id=":11189079178_1_0" index="0" disallow="tram rail_urban rail rail_electric rail_fast ship" speed="3.65" length="4.67" shape="1125.77,746.44 1124.86,745.32 1124.72,744.44 1125.34,743.79 1126.72,743.38"/>
    </edge>
    <edge id=":11189079178_2" function="internal">
        <lane id=":11189079178_2_0" index="0" disallow="tram rail_urban rail rail_electric rail_fast ship" speed="13.89" length="9.55" shape="1118.90,748.99 1119.31,746.25 1119.32,744.34 1119.10,742.41 1118.83,739.62"/>
        <lane id=":11189079178_2_1" index="1" disallow="tram rail_urban rail rail_electric rail_fast ship" speed="13.89" length="9.55" shape="1122.15,749.01 1122.56,746.19 1122.55,744.23 1122.31,742.26 1122.02,739.40"/>
    </edge>
    <edge id=":11189079178_4" function="internal">
        <lane id=":11189079178_4_0" index="0" disallow="tram rail_urban rail rail_electric rail_fast ship" speed="6.01" length="8.17" shape="1122.15,749.01 1122.92,746.17 1123.93,744.28 1125.20,743.35 1126.72,743.38"/>
    </edge>
    <edge id=":11360905560_0" function="internal">
        <lane id=":11360905560_0_0" index="0" disallow="tram rail_urban rail rail_electric rail_fast ship" speed="9.00" length="9.66" shape="885.33,796.01 884.92,794.48 883.76,792.79 881.84,790.94 879.16,788.92"/>
    </edge>
    <edge id=":11360905560_1" function="internal">
        <lane id=":11360905560_1_0" index="0" disallow="tram rail_urban rail rail_electric rail_fast ship" speed="13.89" length="11.98" shape="885.33,796.01 885.15,784.04"/>
    </edge>
    <edge id=":11360905560_2" function="internal">
        <lane id=":11360905560_2_0" index="0" disallow="tram rail_urban rail rail_electric rail_fast ship" speed="3.65" length="1.44" shape="885.33,796.01 886.11,794.80"/>
    </edge>
    <edge id=":11360905560_6" function="internal">
        <lane id=":11360905560_6_0" index="0" disallow="tram rail_urban rail rail_electric rail_fast ship" speed="3.65" length="3.23" shape="886.11,794.80 886.90,794.39 887.71,794.78 888.53,795.97"/>
    </edge>
    <edge id=":11360905560_3" function="internal">
        <lane id=":11360905560_3_0" index="0" disallow="tram rail_urban rail rail_electric rail_fast ship" speed="13.89" length="11.98" shape="888.35,783.99 888.53,795.97"/>
    </edge>
    <edge id=":11360905560_4" function="internal">
        <lane id=":11360905560_4_0" index="0" disallow="tram rail_urban rail rail_electric rail_fast ship" speed="5.97" length="3.07" shape="888.35,783.99 887.93,786.92 887.85,786.99"/>
    </edge>
    <edge id=":11360905560_5" function="internal">
        <lane id=":11360905560_5_0" index="0" disallow="tram rail_urban rail rail_electric rail_fast ship" speed="3.65" length="1.44" shape="888.35,783.99 887.56,785.20"/>
    </edge>
    <edge id=":11360905560_7" function="internal">
        <lane id=":11360905560_7_0" index="0" disallow="tram rail_urban rail rail_electric rail_fast ship" speed="5.97" length="7.88" shape="887.85,786.99 886.56,788.27 884.24,788.06 880.97,786.28"/>
    </edge>
    <edge id=":11360905560_8" function="internal">
        <lane id=":11360905560_8_0" index="0" disallow="tram rail_urban rail rail_electric rail_fast ship" speed="3.65" length="3.23" shape="887.56,785.20 886.77,785.61 885.96,785.22 885.15,784.04"/>
    </edge>
    <edge id=":11612247571_0" function="internal">
        <lane id=":11612247571_0_0" index="0" disallow="tram rail_urban rail rail_electric rail_fast ship" speed="3.65" length="4.67" shape="2040.94,743.28 2039.64,742.64 2039.15,741.90 2039.44,741.06 2040.53,740.11"/>
    </edge>
    <edge id=":11701511763_0" function="internal">
        <lane id=":11701511763_0_0" index="0" disallow="tram rail_urban rail rail_electric rail_fast ship" speed="8.33" length="6.58" shape="1105.61,517.72 1104.66,515.45 1104.16,513.42 1104.11,511.62 1104.53,510.05"/>
        <lane id=":11701511763_0_1" index="1" disallow="tram rail_urban rail rail_electric rail_fast ship" speed="7.12" length="6.58" shape="1108.48,516.30 1107.78,514.70 1107.37,513.35 1107.26,512.23 1107.45,511.35"/>
    </edge>
    <edge id=":11701511763_2" function="internal">
        <lane id=":11701511763_2_0" index="0" disallow="tram rail_urban rail rail_electric rail_fast ship" speed="5.73" length="4.53" shape="1100.38,511.37 1101.98,511.27 1103.21,511.02 1104.06,510.61 1104.53,510.05"/>
        <lane id=":11701511763_2_1" index="1" disallow="tram rail_urban rail rail_electric rail_fast ship" speed="7.45" length="8.16" shape="1100.42,514.57 1102.97,514.34 1105.00,513.73 1106.49,512.73 1107.45,511.35"/>
    </edge>
    <edge id=":11701511764_0" function="internal">
        <lane id=":11701511764_0_0" index="0" disallow="tram rail_urban rail rail_electric rail_fast ship" speed="6.20" length="6.90" shape="1105.14,502.86 1106.32,504.26 1107.72,505.05 1109.31,505.22 1111.12,504.78"/>
        <lane id=":11701511764_0_1" index="1" disallow="tram rail_urban rail rail_electric rail_fast ship" speed="11.11" length="9.70" shape="1102.61,504.86 1104.42,506.77 1106.28,507.26 1108.51,507.31 1111.37,507.87"/>
    </edge>
    <edge id=":11701511764_2" function="internal">
        <lane id=":11701511764_2_0" index="0" disallow="tram rail_urban rail rail_electric rail_fast ship" speed="8.33" length="7.08" shape="1104.61,509.87 1105.79,507.69 1107.05,506.48 1108.71,505.68 1111.12,504.78"/>
        <lane id=":11701511764_2_1" index="1" disallow="tram rail_urban rail rail_electric rail_fast ship" speed="5.41" length="7.08" shape="1107.53,511.17 1108.44,509.46 1109.38,508.34 1110.36,507.81 1111.37,507.87"/>
    </edge>
    <edge id=":11701511765_0" function="internal">
        <lane id=":11701511765_0_0" index="0" disallow="tram rail_urban rail rail_electric rail_fast ship" speed="8.54" length="7.86" shape="1111.30,504.71 1114.05,503.55 1116.07,502.51 1117.38,501.59 1117.98,500.79"/>
        <lane id=":11701511765_0_1" index="1" disallow="tram rail_urban rail rail_electric rail_fast ship" speed="9.71" length="10.29" shape="1111.30,504.71 1115.67,503.05 1118.75,502.00 1120.54,501.57 1121.03,501.75"/>
    </edge>
    <edge id=":11701511765_2" function="internal">
        <lane id=":11701511765_2_0" index="0" disallow="tram rail_urban rail rail_electric rail_fast ship" speed="7.32" length="8.97" shape="1111.30,504.71 1113.83,504.27 1116.11,505.02 1118.13,506.97 1119.89,510.13"/>
        <lane id=":11701511765_2_1" index="1" disallow="tram rail_urban rail rail_electric rail_fast ship" speed="8.25" length="8.97" shape="1111.56,507.93 1113.61,508.74 1115.19,509.59 1116.31,510.47 1116.96,511.40"/>
    </edge>
    <edge id=":11701512676_0" function="internal">
        <lane id=":11701512676_0_0" index="0" disallow="tram rail_urban rail rail_electric rail_fast ship" speed="5.54" length="4.24" shape="1119.97,510.31 1120.62,510.84 1121.75,511.13 1122.98,511.24 1123.98,511.26"/>
        <lane id=":11701512676_0_1" index="1" disallow="tram rail_urban rail rail_electric rail_fast ship" speed="6.47" length="6.02" shape="1119.97,510.31 1120.89,512.12 1121.86,513.41 1122.87,514.19 1123.93,514.46"/>
    </edge>
    <edge id=":11701512676_2" function="internal">
        <lane id=":11701512676_2_0" index="0" disallow="tram rail_urban rail rail_electric rail_fast ship" speed="7.30" length="4.88" shape="1119.97,510.31 1120.33,511.68 1120.27,513.16 1119.78,514.73 1118.86,516.41"/>
        <lane id=":11701512676_2_1" index="1" disallow="tram rail_urban rail rail_electric rail_fast ship" speed="5.42" length="4.88" shape="1117.04,511.59 1117.15,512.18 1117.05,512.89 1116.73,513.72 1116.18,514.66"/>
    </edge>
    <edge id=":11701520688_0" function="internal">
        <lane id=":11701520688_0_0" index="0" disallow="tram rail_urban rail rail_electric rail_fast ship" speed="7.18" length="8.05" shape="1491.23,332.10 1489.04,333.10 1487.45,334.35 1486.47,335.87 1486.10,337.64"/>
    </edge>
    <edge id=":11701520688_1" function="internal">
        <lane id=":11701520688_1_0" index="0" disallow="tram rail_urban rail rail_electric rail_fast ship" speed="6.52" length="8.25" shape="1483.33,326.26 1484.57,328.10 1486.12,329.19 1488.00,329.51 1490.18,329.08"/>
    </edge>
    <edge id=":11701520688_2" function="internal">
        <lane id=":11701520688_2_0" index="0" disallow="tram rail_urban rail rail_electric rail_fast ship" speed="8.33" length="11.12" shape="1483.33,326.26 1484.87,329.44 1485.75,331.73 1486.11,334.13 1486.10,337.64"/>
        <lane id=":11701520688_2_1" index="1" disallow="tram rail_urban rail rail_electric rail_fast ship" speed="8.33" length="11.12" shape="1480.47,327.70 1481.81,330.44 1482.58,332.42 1482.91,334.50 1482.90,337.52"/>
    </edge>
    <edge id=":11701520689_0" function="internal">
        <lane id=":11701520689_0_0" index="0" disallow="tram rail_urban rail rail_electric rail_fast ship" speed="7.55" length="8.52" shape="1464.94,342.57 1463.50,341.05 1461.75,340.10 1459.70,339.74 1457.35,339.96"/>
    </edge>
    <edge id=":11701520689_1" function="internal">
        <lane id=":11701520689_1_0" index="0" disallow="tram rail_urban rail rail_electric rail_fast ship" speed="8.33" length="8.51" shape="1464.94,342.57 1463.28,340.31 1462.20,338.66 1461.60,336.84 1461.32,334.11"/>
        <lane id=":11701520689_1_1" index="1" disallow="tram rail_urban rail rail_electric rail_fast ship" speed="8.33" length="8.51" shape="1467.55,340.71 1466.19,338.91 1465.29,337.60 1464.76,336.16 1464.52,333.97"/>
    </edge>
    <edge id=":11701520689_3" function="internal">
        <lane id=":11701520689_3_0" index="0" disallow="tram rail_urban rail rail_electric rail_fast ship" speed="5.62" length="5.69" shape="1456.72,336.83 1458.76,336.30 1460.21,335.67 1461.06,334.94 1461.32,334.11"/>
    </edge>
    <edge id=":11701520690_0" function="internal">
        <lane id=":11701520690_0_0" index="0" disallow="tram rail_urban rail rail_electric rail_fast ship" speed="8.33" length="14.08" shape="1481.92,350.50 1479.14,348.70 1476.45,347.49 1473.26,346.47 1468.96,345.25"/>
    </edge>
    <edge id=":11701520690_1" function="internal">
        <lane id=":11701520690_1_0" index="0" disallow="tram rail_urban rail rail_electric rail_fast ship" speed="8.33" length="12.32" shape="1482.20,343.45 1480.33,345.36 1477.49,346.30 1473.71,346.26 1468.96,345.25"/>
        <lane id=":11701520690_1_1" index="1" disallow="tram rail_urban rail rail_electric rail_fast ship" speed="8.33" length="12.32" shape="1479.74,341.20 1477.85,342.33 1475.57,342.87 1472.90,342.82 1469.85,342.18"/>
    </edge>
    <edge id=":11701520695_0" function="internal">
        <lane id=":11701520695_0_0" index="0" disallow="tram rail_urban rail rail_electric rail_fast ship" speed="8.33" length="15.13" shape="1468.20,316.02 1470.62,318.41 1473.23,320.24 1476.48,322.00 1480.81,324.18"/>
    </edge>
    <edge id=":11701520695_1" function="internal">
        <lane id=":11701520695_1_0" index="0" disallow="tram rail_urban rail rail_electric rail_fast ship" speed="8.33" length="12.08" shape="1467.50,324.00 1471.42,322.75 1474.31,322.20 1477.12,322.59 1480.81,324.18"/>
        <lane id=":11701520695_1_1" index="1" disallow="tram rail_urban rail rail_electric rail_fast ship" speed="8.33" length="12.08" shape="1469.56,326.70 1472.45,325.82 1474.57,325.48 1476.64,325.83 1479.36,327.03"/>
    </edge>
    <edge id=":11701520696_0" function="internal">
        <lane id=":11701520696_0_0" index="0" disallow="tram rail_urban rail rail_electric rail_fast ship" speed="9.21" length="4.17" shape="1486.09,337.84 1486.15,339.04 1486.42,339.83 1486.90,340.58 1487.56,341.63"/>
    </edge>
    <edge id=":11701520696_1" function="internal">
        <lane id=":11701520696_1_0" index="0" disallow="tram rail_urban rail rail_electric rail_fast ship" speed="8.33" length="4.71" shape="1486.09,337.84 1485.78,339.13 1485.10,339.84 1484.21,340.49 1483.29,341.60"/>
        <lane id=":11701520696_1_1" index="1" disallow="tram rail_urban rail rail_electric rail_fast ship" speed="6.93" length="4.71" shape="1482.89,337.72 1482.52,338.58 1481.66,339.54 1480.67,340.43 1479.88,341.08"/>
    </edge>
    <edge id=":11701520698_0" function="internal">
        <lane id=":11701520698_0_0" index="0" disallow="tram rail_urban rail rail_electric rail_fast ship" speed="11.11" length="12.67" shape="1461.31,333.91 1461.14,329.96 1460.92,327.08 1460.54,324.47 1459.86,321.35"/>
    </edge>
    <edge id=":11701520698_1" function="internal">
        <lane id=":11701520698_1_0" index="0" disallow="tram rail_urban rail rail_electric rail_fast ship" speed="8.30" length="10.77" shape="1461.31,333.91 1461.55,330.35 1462.58,327.54 1464.41,325.47 1467.05,324.14"/>
        <lane id=":11701520698_1_1" index="1" disallow="tram rail_urban rail rail_electric rail_fast ship" speed="7.28" length="10.77" shape="1464.51,333.77 1464.73,331.31 1465.61,329.32 1467.15,327.80 1469.36,326.76"/>
    </edge>
    <edge id=":11701832085_0" function="internal">
        <lane id=":11701832085_0_0" index="0" disallow="tram rail_urban rail rail_electric rail_fast ship" speed="11.11" length="11.15" shape="1118.75,516.58 1117.07,519.46 1116.24,521.69 1115.86,523.99 1115.51,527.07"/>
    </edge>
    <edge id=":11701832085_1" function="internal">
        <lane id=":11701832085_1_0" index="0" disallow="tram rail_urban rail rail_electric rail_fast ship" speed="8.33" length="11.32" shape="1118.75,516.58 1116.85,518.68 1114.37,520.03 1111.30,520.65 1107.65,520.53"/>
        <lane id=":11701832085_1_1" index="1" disallow="tram rail_urban rail rail_electric rail_fast ship" speed="5.90" length="11.32" shape="1116.07,514.83 1113.83,517.66 1111.84,518.89 1110.10,518.52 1108.61,516.56"/>
    </edge>
    <edge id=":11701832085_3" function="internal">
        <lane id=":11701832085_3_0" index="0" disallow="tram rail_urban rail rail_electric rail_fast ship" speed="6.44" length="8.84" shape="1112.33,526.70 1112.30,524.25 1111.51,522.41 1109.96,521.17 1107.65,520.53"/>
    </edge>
    <edge id=":11701832842_0" function="internal">
        <lane id=":11701832842_0_0" index="0" disallow="tram rail_urban rail rail_electric rail_fast ship" speed="11.11" length="7.49" shape="1557.80,498.67 1559.84,499.50 1561.32,499.82 1562.87,499.86 1565.09,499.88"/>
        <lane id=":11701832842_0_1" index="1" disallow="tram rail_urban rail rail_electric rail_fast ship" speed="11.11" length="8.66" shape="1557.80,498.67 1559.95,500.09 1561.25,501.50 1562.63,502.59 1565.00,503.08"/>
    </edge>
    <edge id=":11701832842_2" function="internal">
        <lane id=":11701832842_2_0" index="0" disallow="tram rail_urban rail rail_electric rail_fast ship" speed="8.33" length="7.59" shape="1557.80,498.67 1559.32,499.74 1560.55,501.37 1561.47,503.58 1562.10,506.36"/>
        <lane id=":11701832842_2_1" index="1" disallow="tram rail_urban rail rail_electric rail_fast ship" speed="7.13" length="7.59" shape="1556.45,501.57 1557.28,502.21 1557.97,503.31 1558.52,504.86 1558.94,506.86"/>
    </edge>
    <edge id=":11701832845_0" function="internal">
        <lane id=":11701832845_0_0" index="0" disallow="tram rail_urban rail rail_electric rail_fast ship" speed="8.74" length="7.98" shape="1552.91,492.27 1553.67,494.42 1554.68,496.18 1555.95,497.54 1557.47,498.51"/>
    </edge>
    <edge id=":11701832845_1" function="internal">
        <lane id=":11701832845_1_0" index="0" disallow="tram rail_urban rail rail_electric rail_fast ship" speed="5.50" length="4.99" shape="1549.90,497.90 1550.29,497.38 1550.40,496.41 1550.25,494.98 1549.82,493.10"/>
    </edge>
    <edge id=":11701832845_2" function="internal">
        <lane id=":11701832845_2_0" index="0" disallow="tram rail_urban rail rail_electric rail_fast ship" speed="8.22" length="6.36" shape="1549.90,497.90 1551.44,497.34 1553.22,497.26 1555.23,497.65 1557.47,498.51"/>
        <lane id=":11701832845_2_1" index="1" disallow="tram rail_urban rail rail_electric rail_fast ship" speed="6.59" length="6.36" shape="1551.46,500.69 1552.28,500.44 1553.33,500.48 1554.61,500.80 1556.11,501.41"/>
    </edge>
    <edge id=":11701832850_0" function="internal">
        <lane id=":11701832850_0_0" index="0" disallow="tram rail_urban rail rail_electric rail_fast ship" speed="9.14" length="7.68" shape="1557.66,520.28 1556.67,519.29 1554.69,518.00 1552.60,516.80 1551.27,516.08"/>
    </edge>
    <edge id=":11701832850_1" function="internal">
        <lane id=":11701832850_1_0" index="0" disallow="tram rail_urban rail rail_electric rail_fast ship" speed="8.78" length="9.38" shape="1561.95,510.47 1560.82,512.31 1560.24,514.41 1560.21,516.77 1560.73,519.39"/>
    </edge>
    <edge id=":11701832850_2" function="internal">
        <lane id=":11701832850_2_0" index="0" disallow="tram rail_urban rail rail_electric rail_fast ship" speed="8.27" length="13.11" shape="1561.95,510.47 1558.85,513.77 1556.04,515.80 1553.51,516.57 1551.27,516.08"/>
        <lane id=":11701832850_2_1" index="1" disallow="tram rail_urban rail rail_electric rail_fast ship" speed="6.46" length="13.11" shape="1559.19,508.44 1559.20,512.05 1557.79,513.88 1554.98,513.92 1550.76,512.17"/>
    </edge>
    <edge id=":11701832855_0" function="internal">
        <lane id=":11701832855_0_0" index="0" disallow="tram rail_urban rail rail_electric rail_fast ship" speed="11.11" length="13.30" shape="1537.57,498.56 1541.29,498.90 1543.94,499.40 1546.44,499.34 1549.73,498.00"/>
        <lane id=":11701832855_0_1" index="1" disallow="tram rail_urban rail rail_electric rail_fast ship" speed="11.11" length="13.30" shape="1537.55,501.76 1541.76,502.10 1544.75,502.55 1547.57,502.36 1551.29,500.79"/>
    </edge>
    <edge id=":11701832855_2" function="internal">
        <lane id=":11701832855_2_0" index="0" disallow="tram rail_urban rail rail_electric rail_fast ship" speed="8.33" length="13.21" shape="1544.57,510.40 1543.70,506.72 1544.27,503.42 1546.28,500.51 1549.73,498.00"/>
        <lane id=":11701832855_2_1" index="1" disallow="tram rail_urban rail rail_electric rail_fast ship" speed="7.58" length="13.21" shape="1548.12,510.61 1547.31,507.54 1547.57,504.88 1548.89,502.63 1551.29,500.79"/>
    </edge>
    <edge id=":12909016981_0" function="internal">
        <lane id=":12909016981_0_0" index="0" disallow="tram rail_urban rail rail_electric rail_fast ship" speed="3.65" length="4.67" shape="1153.22,751.56 1154.13,752.68 1154.28,753.56 1153.66,754.21 1152.28,754.62"/>
    </edge>
    <edge id=":129516014_0" function="internal">
        <lane id=":129516014_0_0" index="0" disallow="tram rail_urban rail rail_electric rail_fast ship" speed="13.89" length="11.47" shape="935.66,784.07 932.44,784.52 929.81,786.02 927.15,787.07 923.85,786.17"/>
        <lane id=":129516014_0_1" index="1" disallow="tram rail_urban rail rail_electric rail_fast ship" speed="13.89" length="11.47" shape="935.66,784.07 932.60,784.03 930.36,784.48 928.24,784.57 925.54,783.45"/>
    </edge>
    <edge id=":129516014_2" function="internal">
        <lane id=":129516014_2_0" index="0" disallow="tram rail_urban rail rail_electric rail_fast ship" speed="13.89" length="8.36" shape="928.91,778.01 931.02,779.31 932.55,780.08 934.18,780.56 936.62,780.98"/>
    </edge>
    <edge id=":134860939_0" function="internal">
        <lane id=":134860939_0_0" index="0" disallow="tram rail_urban rail rail_electric rail_fast ship" speed="13.89" length="15.92" shape="843.05,702.50 840.72,706.96 838.12,709.89 835.57,712.25 833.40,714.99"/>
    </edge>
    <edge id=":134860939_1" function="internal">
        <lane id=":134860939_1_0" index="0" disallow="tram rail_urban rail rail_electric rail_fast ship" speed="3.65" length="1.44" shape="840.10,701.25 838.89,702.05"/>
    </edge>
    <edge id=":134860939_7" function="internal">
        <lane id=":134860939_7_0" index="0" disallow="tram rail_urban rail rail_electric rail_fast ship" speed="3.65" length="3.23" shape="838.89,702.05 838.00,702.11 837.42,701.43 837.14,700.01"/>
    </edge>
    <edge id=":134860939_2" function="internal">
        <lane id=":134860939_2_0" index="0" disallow="pedestrian tram rail_urban rail rail_electric rail_fast ship" speed="13.89" length="18.01" shape="829.99,701.88 844.37,712.61"/>
        <lane id=":134860939_2_1" index="1" disallow="pedestrian tram rail_urban rail rail_electric rail_fast ship" speed="13.89" length="18.01" shape="828.02,704.40 842.51,715.21"/>
    </edge>
    <edge id=":134860939_4" function="internal">
        <lane id=":134860939_4_0" index="0" disallow="tram rail_urban rail rail_electric rail_fast ship" speed="13.89" length="14.92" shape="830.62,713.41 832.44,710.14 834.16,706.84 835.74,703.47 837.14,700.01"/>
    </edge>
    <edge id=":134860939_5" function="internal">
        <lane id=":134860939_5_0" index="0" disallow="pedestrian tram rail_urban rail rail_electric rail_fast ship" speed="7.54" length="2.64" shape="830.62,713.41 832.39,711.73 832.60,711.71"/>
    </edge>
    <edge id=":134860939_6" function="internal">
        <lane id=":134860939_6_0" index="0" disallow="tram rail_urban rail rail_electric rail_fast ship" speed="3.65" length="1.44" shape="830.62,713.41 831.91,712.76"/>
    </edge>
    <edge id=":134860939_8" function="internal">
        <lane id=":134860939_8_0" index="0" disallow="pedestrian tram rail_urban rail rail_electric rail_fast ship" speed="7.54" length="10.85" shape="832.60,711.71 834.96,711.47 838.33,712.63 842.51,715.21"/>
    </edge>
    <edge id=":134860939_9" function="internal">
        <lane id=":134860939_9_0" index="0" disallow="tram rail_urban rail rail_electric rail_fast ship" speed="3.65" length="3.23" shape="831.91,712.76 832.81,712.81 833.30,713.55 833.40,714.99"/>
    </edge>
    <edge id=":1471286958_0" function="internal">
        <lane id=":1471286958_0_0" index="0" disallow="pedestrian tram rail_urban rail rail_electric rail_fast ship" speed="15.28" length="5.34" shape="237.70,293.01 237.62,294.59 237.57,295.68 237.62,296.76 237.86,298.32"/>
        <lane id=":1471286958_0_1" index="1" disallow="pedestrian tram rail_urban rail rail_electric rail_fast ship" speed="15.28" length="5.79" shape="234.50,292.91 234.42,294.63 234.36,295.81 234.41,296.99 234.67,298.68"/>
        <lane id=":1471286958_0_2" index="2" disallow="pedestrian tram rail_urban rail rail_electric rail_fast ship" speed="15.28" length="6.25" shape="231.30,292.81 231.21,294.66 231.15,295.94 231.21,297.21 231.48,299.04"/>
    </edge>
    <edge id=":1471286958_3" function="internal">
        <lane id=":1471286958_3_0" index="0" disallow="pedestrian tram rail_urban rail rail_electric rail_fast ship" speed="15.28" length="4.57" shape="228.10,292.71 228.05,294.17 227.96,295.17 227.74,296.15 227.30,297.54"/>
        <lane id=":1471286958_3_1" index="1" disallow="pedestrian tram rail_urban rail rail_electric rail_fast ship" speed="14.12" length="4.57" shape="224.91,292.61 224.88,293.97 224.81,294.91 224.59,295.81 224.08,297.06"/>
        <lane id=":1471286958_3_2" index="2" disallow="pedestrian tram rail_urban rail rail_electric rail_fast ship" speed="13.54" length="4.57" shape="221.71,292.51 221.66,293.75 221.55,294.60 221.29,295.42 220.80,296.56"/>
    </edge>
    <edge id=":1494522757_0" function="internal">
        <lane id=":1494522757_0_0" index="0" disallow="tram rail_urban rail rail_electric rail_fast ship" speed="3.65" length="4.67" shape="1208.99,41.47 1209.67,40.20 1210.43,39.72 1211.26,40.04 1212.17,41.16"/>
    </edge>
    <edge id=":154259583_0" function="internal">
        <lane id=":154259583_0_0" index="0" disallow="tram rail_urban rail rail_electric rail_fast ship" speed="10.49" length="22.56" shape="1461.87,183.82 1453.73,184.82 1447.84,186.62 1444.20,189.25 1442.81,192.69"/>
    </edge>
    <edge id=":154259583_1" function="internal">
        <lane id=":154259583_1_0" index="0" disallow="tram rail_urban rail rail_electric rail_fast ship" speed="13.89" length="25.95" shape="1461.87,183.82 1435.98,185.51"/>
    </edge>
    <edge id=":154259583_2" function="internal">
        <lane id=":154259583_2_0" index="0" disallow="tram rail_urban rail rail_electric rail_fast ship" speed="9.54" length="20.39" shape="1461.87,183.82 1455.44,183.58 1450.72,181.92 1447.74,178.84 1446.47,174.35"/>
    </edge>
    <edge id=":154259583_3" function="internal">
        <lane id=":154259583_3_0" index="0" disallow="tram rail_urban rail rail_electric rail_fast ship" speed="3.65" length="4.67" shape="1461.87,183.82 1460.63,183.10 1460.18,182.32 1460.52,181.50 1461.67,180.63"/>
    </edge>
    <edge id=":154259583_4" function="internal">
        <lane id=":154259583_4_0" index="0" disallow="tram rail_urban rail rail_electric rail_fast ship" speed="5.64" length="9.75" shape="1458.72,174.62 1457.32,177.42 1457.34,179.35 1458.79,180.42 1461.67,180.63"/>
    </edge>
    <edge id=":154259583_5" function="internal">
        <lane id=":154259583_5_0" index="0" disallow="tram rail_urban rail rail_electric rail_fast ship" speed="13.89" length="24.28" shape="1458.72,174.62 1453.97,180.27 1448.84,184.92 1444.67,188.93 1442.81,192.69"/>
    </edge>
    <edge id=":154259583_6" function="internal">
        <lane id=":154259583_6_0" index="0" disallow="tram rail_urban rail rail_electric rail_fast ship" speed="13.89" length="26.11" shape="1458.72,174.62 1454.90,178.97 1449.83,182.23 1443.52,184.41 1435.98,185.51"/>
    </edge>
    <edge id=":154259583_7" function="internal">
        <lane id=":154259583_7_0" index="0" disallow="tram rail_urban rail rail_electric rail_fast ship" speed="4.87" length="10.07" shape="1456.07,171.29 1446.47,174.35"/>
    </edge>
    <edge id=":154259583_8" function="internal">