<?xml version="1.0" encoding="UTF-8"?>

<!-- generated on 2025-12-07 18:59:52 by Eclipse SUMO netconvert Version 1.18.0
<configuration xmlns:xsi="http://www.w3.org/2001/XMLSchema-instance" xsi:noNamespaceSchemaLocation="http://sumo.dlr.de/xsd/netconvertConfiguration.xsd">

    <input>
        <sumo-net-file value="bucharest.net.xml"/>
    </input>

    <output>
        <plain-output-prefix value="bucharest"/>
    </output>

    <processing>
        <geometry.min-radius.fix.railways value="false"/>
        <geometry.max-grade.fix value="false"/>
        <offset.disable-normalization value="true"/>
        <lefthand value="0"/>
    </processing>

    <junctions>
        <no-turnarounds value="true"/>
        <junctions.corner-detail value="5"/>
        <junctions.limit-turn-speed value="5.50"/>
        <rectangular-lane-cut value="0"/>
    </junctions>

    <pedestrian>
        <walkingareas value="0"/>
    </pedestrian>

</configuration>
-->

<connections version="1.16" xmlns:xsi="http://www.w3.org/2001/XMLSchema-instance" xsi:noNamespaceSchemaLocation="http://sumo.dlr.de/xsd/connections_file.xsd">
    <connection from="-1102792456#1" to="23049907" fromLane="0" toLane="0"/>
    <connection from="-1102792456#1" to="894313712" fromLane="0" toLane="0"/>
    <connection from="-1102792456#1" to="1102792456#0" fromLane="0" toLane="0"/>

    <connection from="-1117820481#0" to="1258792411#3" fromLane="0" toLane="0" visibility="9.00"/>

    <connection from="-1117820481#2" to="242073870#0" fromLane="0" toLane="0"/>
    <connection from="-1117820481#2" to="-1117820481#0" fromLane="0" toLane="0"/>
    <connection from="-1117820481#2" to="1117820481#1" fromLane="0" toLane="0"/>

    <connection from="-1117820481#3" to="23050298#0" fromLane="0" toLane="0"/>
    <connection from="-1117820481#3" to="-1117820481#2" fromLane="0" toLane="0"/>
    <connection from="-1117820481#3" to="-23050209#3" fromLane="0" toLane="0"/>
    <connection from="-1117820481#3" to="1117820481#3" fromLane="0" toLane="0"/>

    <connection from="-1117820481#4" to="-1117820481#3" fromLane="0" toLane="0"/>
    <connection from="-1117820481#4" to="-252430463" fromLane="0" toLane="0"/>
    <connection from="-1117820481#4" to="1117820481#4" fromLane="0" toLane="0"/>

    <connection from="-1258763737#0" to="1258788953#4" fromLane="0" toLane="0" visibility="9.00"/>

    <connection from="-1258763737#1" to="-1258763737#0" fromLane="0" toLane="0"/>
    <connection from="-1258763737#1" to="1258763737#1" fromLane="0" toLane="0"/>

    <connection from="-1258763737#2" to="384212597" fromLane="0" toLane="0"/>
    <connection from="-1258763737#2" to="-1258763737#1" fromLane="0" toLane="0"/>
    <connection from="-1258763737#2" to="1258763737#2" fromLane="0" toLane="0"/>

    <connection from="-1258765984#0" to="1016298508" fromLane="0" toLane="0"/>
    <connection from="-1258765984#0" to="-23050679" fromLane="0" toLane="0"/>
    <connection from="-1258765984#0" to="-23049602#1" fromLane="0" toLane="0"/>
    <connection from="-1258765984#0" to="1258765984#0" fromLane="0" toLane="0"/>

    <connection from="-1258765984#1" to="-1258765984#0" fromLane="0" toLane="0"/>
    <connection from="-1258765984#1" to="85314220" fromLane="0" toLane="0"/>
    <connection from="-1258765984#1" to="1258765984#1" fromLane="0" toLane="0"/>

    <connection from="-1258765985" to="-23116300#3" fromLane="0" toLane="0"/>
    <connection from="-1258765985" to="65746828#0" fromLane="0" toLane="0"/>
    <connection from="-1258765985" to="65746828#0" fromLane="0" toLane="1"/>
    <connection from="-1258765985" to="23050678#0" fromLane="0" toLane="0"/>
    <connection from="-1258765985" to="1258765985" fromLane="0" toLane="0"/>

    <connection from="-1259367082#0" to="-23124121" fromLane="0" toLane="0"/>
    <connection from="-1259367082#0" to="85316014" fromLane="0" toLane="1"/>

    <connection from="-1259367082#1" to="-1259367082#0" fromLane="0" toLane="0"/>
    <connection from="-1259367082#1" to="1259367082#1" fromLane="0" toLane="0"/>

    <connection from="-1357054601#4" to="982816379#5" fromLane="0" toLane="0"/>
    <connection from="-1357054601#4" to="236238100#1" fromLane="0" toLane="2"/>
    <connection from="-1357054601#4" to="236238100#1" fromLane="0" toLane="3"/>
    <connection from="-1357054601#4" to="1357054601#3" fromLane="0" toLane="0"/>

    <connection from="-1380801989#4" to="175192367#0" fromLane="0" toLane="0"/>
    <connection from="-1380801989#4" to="175192367#0" fromLane="0" toLane="1"/>
    <connection from="-1380801989#4" to="1430504273#0" fromLane="0" toLane="0"/>
    <connection from="-1380801989#4" to="1380801989#0" fromLane="0" toLane="0"/>

    <connection from="-1380801990" to="62218215" fromLane="0" toLane="0"/>
    <connection from="-1380801990" to="1380801990" fromLane="0" toLane="0"/>

    <connection from="-1394494019" to="23116327#2" fromLane="0" toLane="1"/>
    <connection from="-1394494019" to="1394494019" fromLane="0" toLane="0"/>

    <connection from="-1430504273#0" to="1380801989#0" fromLane="0" toLane="0"/>
    <connection from="-1430504273#0" to="175192367#0" fromLane="0" toLane="1"/>
    <connection from="-1430504273#0" to="1430504273#0" fromLane="0" toLane="0"/>

    <connection from="-1430504273#1" to="-1430504273#0" fromLane="0" toLane="0"/>
    <connection from="-1430504273#1" to="1430504273#1" fromLane="0" toLane="0"/>

    <connection from="-1430504274#2" to="1430504274#0" fromLane="0" toLane="0"/>

    <connection from="-153964133#1" to="82950034#0" fromLane="0" toLane="0"/>
    <connection from="-153964133#1" to="-930756223" fromLane="0" toLane="0"/>
    <connection from="-153964133#1" to="-930756223" fromLane="1" toLane="1"/>
    <connection from="-153964133#1" to="175189333#0" fromLane="1" toLane="0"/>
    <connection from="-153964133#1" to="153964133#1" fromLane="1" toLane="1"/>

    <connection from="-174965593" to="-894313713#1" fromLane="0" toLane="0"/>
    <connection from="-174965593" to="-894313712" fromLane="0" toLane="0"/>
    <connection from="-174965593" to="53083599#0" fromLane="0" toLane="0"/>
    <connection from="-174965593" to="174965593" fromLane="0" toLane="0"/>

    <connection from="-186700934" to="23124204#1" fromLane="0" toLane="0"/>
    <connection from="-186700934" to="-23124204#0" fromLane="0" toLane="0"/>
    <connection from="-186700934" to="186700934" fromLane="0" toLane="0"/>

    <connection from="-209747739" to="533148591" fromLane="0" toLane="1"/>
    <connection from="-209747739" to="209747739" fromLane="0" toLane="0"/>

    <connection from="-210234372#0" to="210234372#0" fromLane="0" toLane="0"/>

    <connection from="-210234372#1" to="-210234372#0" fromLane="0" toLane="0"/>
    <connection from="-210234372#1" to="-210234374#2" fromLane="0" toLane="0"/>
    <connection from="-210234372#1" to="210234372#1" fromLane="0" toLane="0"/>

    <connection from="-210234374#2" to="210234374#0" fromLane="0" toLane="0"/>

    <connection from="-217137329" to="217137329" fromLane="0" toLane="0"/>

    <connection from="-218056920" to="218056920" fromLane="0" toLane="0"/>

    <connection from="-218680176#1" to="218680176#0" fromLane="0" toLane="1"/>

    <connection from="-229237523#0" to="-671891047#2" fromLane="0" toLane="0"/>
    <connection from="-229237523#0" to="-671891047#2" fromLane="0" toLane="1"/>

    <connection from="-229237523#1" to="-681503408#1" fromLane="0" toLane="0"/>
    <connection from="-229237523#1" to="-229237523#0" fromLane="0" toLane="0"/>
    <connection from="-229237523#1" to="229237523#1" fromLane="0" toLane="0"/>

    <connection from="-230067311#0" to="-1102792456#1" fromLane="0" toLane="0"/>
    <connection from="-230067311#0" to="894313713#0" fromLane="0" toLane="0"/>
    <connection from="-230067311#0" to="230067311#0" fromLane="0" toLane="0"/>

    <connection from="-230067427#2" to="236434386#0" fromLane="0" toLane="0"/>
    <connection from="-230067427#2" to="-541379602#2" fromLane="0" toLane="0"/>
    <connection from="-230067427#2" to="230067427#0" fromLane="0" toLane="0"/>

    <connection from="-23049602#0" to="387455401" fromLane="0" toLane="0"/>
    <connection from="-23049602#0" to="-1430504274#2" fromLane="0" toLane="0"/>
    <connection from="-23049602#0" to="23049602#0" fromLane="0" toLane="0"/>

    <connection from="-23049602#1" to="-23049602#0" fromLane="0" toLane="0"/>
    <connection from="-23049602#1" to="23116300#0" fromLane="0" toLane="0"/>
    <connection from="-23049602#1" to="23049602#1" fromLane="0" toLane="0"/>

    <connection from="-23049908#1" to="230067311#1" fromLane="0" toLane="0"/>
    <connection from="-23049908#1" to="-230067311#0" fromLane="0" toLane="0"/>
    <connection from="-23049908#1" to="23049908#0" fromLane="0" toLane="0"/>

    <connection from="-23049910#1" to="23049912#0" fromLane="0" toLane="0"/>
    <connection from="-23049910#1" to="23049910#0" fromLane="0" toLane="0"/>

    <connection from="-23049910#3" to="-23049910#1" fromLane="0" toLane="0"/>
    <connection from="-23049910#3" to="23049910#2" fromLane="0" toLane="0"/>

    <connection from="-23050045#0" to="8211143" fromLane="0" toLane="0"/>
    <connection from="-23050045#0" to="23050045#0" fromLane="0" toLane="0"/>

    <connection from="-23050045#1" to="-23050045#0" fromLane="0" toLane="0"/>
    <connection from="-23050045#1" to="-23116325#2" fromLane="0" toLane="0"/>
    <connection from="-23050045#1" to="23050045#1" fromLane="0" toLane="0"/>

    <connection from="-23050045#2" to="-23050045#1" fromLane="0" toLane="0"/>
    <connection from="-23050045#2" to="23124314#0" fromLane="0" toLane="0"/>
    <connection from="-23050045#2" to="23050045#2" fromLane="0" toLane="0"/>

    <connection from="-23050052#1" to="-252334761#3" fromLane="0" toLane="0"/>
    <connection from="-23050052#1" to="227681186#0" fromLane="0" toLane="1"/>
    <connection from="-23050052#1" to="23050052#0" fromLane="0" toLane="0"/>

    <connection from="-23050189#1" to="23050189#0" fromLane="0" toLane="0"/>

    <connection from="-23050190#2" to="27012396#0" fromLane="0" toLane="0"/>
    <connection from="-23050190#2" to="-294717387#1" fromLane="0" toLane="0"/>
    <connection from="-23050190#2" to="982306344#5" fromLane="0" toLane="1"/>
    <connection from="-23050190#2" to="23050190#0" fromLane="0" toLane="0"/>

    <connection from="-23050190#3" to="-23050190#2" fromLane="0" toLane="0"/>
    <connection from="-23050190#3" to="-23124002" fromLane="0" toLane="0"/>
    <connection from="-23050190#3" to="23050190#3" fromLane="0" toLane="0"/>

    <connection from="-23050192#0" to="27012396#2" fromLane="0" toLane="0"/>
    <connection from="-23050192#0" to="-210234372#1" fromLane="0" toLane="0"/>
    <connection from="-23050192#0" to="982306344#3" fromLane="0" toLane="1"/>
    <connection from="-23050192#0" to="23050192#0" fromLane="0" toLane="0"/>

    <connection from="-23050192#1" to="23123940" fromLane="0" toLane="0"/>
    <connection from="-23050192#1" to="-23050192#0" fromLane="0" toLane="0"/>
    <connection from="-23050192#1" to="23050192#1" fromLane="0" toLane="0"/>

    <connection from="-23050198" to="-23124204#1" fromLane="0" toLane="0"/>
    <connection from="-23050198" to="23124204#2" fromLane="0" toLane="0"/>
    <connection from="-23050198" to="23050198" fromLane="0" toLane="0"/>

    <connection from="-23050209#1" to="-23124003#0" fromLane="0" toLane="0"/>
    <connection from="-23050209#1" to="23124003#1" fromLane="0" toLane="0"/>
    <connection from="-23050209#1" to="23050209#0" fromLane="0" toLane="0"/>

    <connection from="-23050209#2" to="-23050209#1" fromLane="0" toLane="0"/>
    <connection from="-23050209#2" to="162445548#0" fromLane="0" toLane="0"/>
    <connection from="-23050209#2" to="23050209#2" fromLane="0" toLane="0"/>

    <connection from="-23050209#3" to="-23050209#2" fromLane="0" toLane="0"/>
    <connection from="-23050209#3" to="-250284752#1" fromLane="0" toLane="0"/>
    <connection from="-23050209#3" to="23050209#3" fromLane="0" toLane="0"/>

    <connection from="-23050678#3" to="1258765985" fromLane="0" toLane="0"/>
    <connection from="-23050678#3" to="-23116300#3" fromLane="0" toLane="0"/>
    <connection from="-23050678#3" to="65746828#0" fromLane="0" toLane="1"/>
    <connection from="-23050678#3" to="23050678#0" fromLane="0" toLane="0"/>

    <connection from="-23050678#4" to="85315402#0" fromLane="0" toLane="0"/>
    <connection from="-23050678#4" to="-23050678#3" fromLane="0" toLane="0"/>
    <connection from="-23050678#4" to="23050678#4" fromLane="0" toLane="0"/>

    <connection from="-23050679" to="23049614#3" fromLane="0" toLane="1"/>
    <connection from="-23050679" to="23050679" fromLane="0" toLane="0"/>

    <connection from="-23050740" to="-8133114#0" fromLane="0" toLane="0"/>
    <connection from="-23050740" to="8133114#1" fromLane="0" toLane="0"/>
    <connection from="-23050740" to="23050740" fromLane="0" toLane="0"/>

    <connection from="-23115964#0" to="23115964#0" fromLane="0" toLane="0"/>

    <connection from="-23115964#1" to="233862351" fromLane="0" toLane="0"/>
    <connection from="-23115964#1" to="-23115964#0" fromLane="0" toLane="0"/>
    <connection from="-23115964#1" to="23115964#1" fromLane="0" toLane="0"/>

    <connection from="-23115964#3" to="79866100" fromLane="0" toLane="0"/>
    <connection from="-23115964#3" to="-23115964#1" fromLane="0" toLane="0"/>
    <connection from="-23115964#3" to="23115964#2" fromLane="0" toLane="0"/>

    <connection from="-23116300#0" to="23049602#1" fromLane="0" toLane="0"/>
    <connection from="-23116300#0" to="-23049602#0" fromLane="0" toLane="0"/>
    <connection from="-23116300#0" to="23116300#0" fromLane="0" toLane="0"/>

    <connection from="-23116300#1" to="-23116300#0" fromLane="0" toLane="0"/>
    <connection from="-23116300#1" to="-661251539" fromLane="0" toLane="0"/>
    <connection from="-23116300#1" to="23116300#1" fromLane="0" toLane="0"/>

    <connection from="-23116300#3" to="-23116300#1" fromLane="0" toLane="0"/>
    <connection from="-23116300#3" to="-23492047#1" fromLane="0" toLane="0"/>
    <connection from="-23116300#3" to="23116300#2" fromLane="0" toLane="0"/>

    <connection from="-23116325#0" to="254827337#0" fromLane="0" toLane="0"/>
    <connection from="-23116325#0" to="-1380801990" fromLane="0" toLane="0"/>
    <connection from="-23116325#0" to="23116325#0" fromLane="0" toLane="0"/>

    <connection from="-23116325#2" to="-23116325#0" fromLane="0" toLane="0"/>
    <connection from="-23116325#2" to="-23649013" fromLane="0" toLane="0"/>
    <connection from="-23116325#2" to="23116325#1" fromLane="0" toLane="0"/>

    <connection from="-23123780#0" to="218634767#0" fromLane="0" toLane="0"/>
    <connection from="-23123780#0" to="23123780#0" fromLane="0" toLane="1"/>

    <connection from="-23123780#1" to="-23123780#0" fromLane="0" toLane="0"/>
    <connection from="-23123780#1" to="-250476465#1" fromLane="0" toLane="0"/>
    <connection from="-23123780#1" to="23123780#1" fromLane="0" toLane="1"/>

    <connection from="-23123940" to="-23050192#0" fromLane="0" toLane="0"/>
    <connection from="-23123940" to="23050192#1" fromLane="0" toLane="0"/>
    <connection from="-23123940" to="23123940" fromLane="0" toLane="0"/>

    <connection from="-23124002" to="23124003#1" fromLane="0" toLane="0"/>
    <connection from="-23124002" to="23050209#0" fromLane="0" toLane="0"/>
    <connection from="-23124002" to="-23124003#0" fromLane="0" toLane="0"/>

    <connection from="-23124003#0" to="23050190#3" fromLane="0" toLane="0"/>
    <connection from="-23124003#0" to="-23050190#2" fromLane="0" toLane="0"/>
    <connection from="-23124003#0" to="-23124002" fromLane="0" toLane="0"/>

    <connection from="-23124003#3" to="23050209#0" fromLane="0" toLane="0"/>
    <connection from="-23124003#3" to="-23124003#0" fromLane="0" toLane="0"/>
    <connection from="-23124003#3" to="23124003#1" fromLane="0" toLane="0"/>

    <connection from="-23124121" to="1258801996" fromLane="0" toLane="0"/>

    <connection from="-23124137#2" to="-250476465#0" fromLane="0" toLane="0"/>
    <connection from="-23124137#2" to="250476465#1" fromLane="0" toLane="0"/>
    <connection from="-23124137#2" to="23124137#0" fromLane="0" toLane="0"/>

    <connection from="-23124137#3" to="-280805040#2" fromLane="0" toLane="0"/>
    <connection from="-23124137#3" to="-23124137#2" fromLane="0" toLane="0"/>
    <connection from="-23124137#3" to="23124137#3" fromLane="0" toLane="0"/>

    <connection from="-23124137#4" to="-23124137#3" fromLane="0" toLane="0"/>
    <connection from="-23124137#4" to="224757630" fromLane="0" toLane="1"/>
    <connection from="-23124137#4" to="23124137#4" fromLane="0" toLane="0"/>

    <connection from="-23124137#6" to="-23050198" fromLane="0" toLane="0"/>
    <connection from="-23124137#6" to="-23124137#4" fromLane="0" toLane="0"/>
    <connection from="-23124137#6" to="23124137#5" fromLane="0" toLane="0"/>

    <connection from="-23124204#0" to="1258765987#5" fromLane="0" toLane="0" visibility="9.00"/>

    <connection from="-23124204#1" to="-23124204#0" fromLane="0" toLane="0"/>
    <connection from="-23124204#1" to="186700934" fromLane="0" toLane="0"/>
    <connection from="-23124204#1" to="23124204#1" fromLane="0" toLane="0"/>

    <connection from="-23124313#1" to="23050045#3" fromLane="0" toLane="0"/>
    <connection from="-23124313#1" to="-23050045#2" fromLane="0" toLane="0"/>
    <connection from="-23124313#1" to="23124313#0" fromLane="0" toLane="0"/>

    <connection from="-23124314#1" to="23050045#2" fromLane="0" toLane="0"/>
    <connection from="-23124314#1" to="-23050045#1" fromLane="0" toLane="0"/>
    <connection from="-23124314#1" to="23124314#0" fromLane="0" toLane="0"/>

    <connection from="-23125589#0" to="-236434681#3" fromLane="0" toLane="0"/>
    <connection from="-23125589#0" to="23125589#0" fromLane="0" toLane="0"/>

    <connection from="-23125589#1" to="23785501#0" fromLane="0" toLane="0"/>
    <connection from="-23125589#1" to="-23125589#0" fromLane="0" toLane="0"/>
    <connection from="-23125589#1" to="23125589#1" fromLane="0" toLane="0"/>

    <connection from="-231940317#0" to="23116327#0" fromLane="0" toLane="0"/>
    <connection from="-231940317#0" to="-8211143" fromLane="0" toLane="0"/>
    <connection from="-231940317#0" to="231940317#0" fromLane="0" toLane="0"/>

    <connection from="-231940317#1" to="23649027#0" fromLane="0" toLane="0"/>
    <connection from="-231940317#1" to="-231940317#0" fromLane="0" toLane="0"/>
    <connection from="-231940317#1" to="231940317#1" fromLane="0" toLane="0"/>

    <connection from="-231940317#4" to="-23649025#2" fromLane="0" toLane="0"/>
    <connection from="-231940317#4" to="-231940317#1" fromLane="0" toLane="0"/>
    <connection from="-231940317#4" to="231940317#2" fromLane="0" toLane="0"/>

    <connection from="-231940317#5" to="-231940317#4" fromLane="0" toLane="0"/>
    <connection from="-231940317#5" to="23648805#0" fromLane="0" toLane="0"/>
    <connection from="-231940317#5" to="231940317#5" fromLane="0" toLane="0"/>

    <connection from="-23491514" to="217948487#0" fromLane="0" toLane="0"/>

    <connection from="-23492047#1" to="23492047#0" fromLane="0" toLane="0"/>

    <connection from="-236238102#1" to="-252342142#2" fromLane="0" toLane="0"/>
    <connection from="-236238102#1" to="236238102#0" fromLane="1" toLane="0"/>

    <connection from="-236434386#2" to="-541379602#2" fromLane="0" toLane="0"/>
    <connection from="-236434386#2" to="230067427#0" fromLane="0" toLane="0"/>
    <connection from="-236434386#2" to="236434386#0" fromLane="0" toLane="0"/>

    <connection from="-236434387#1" to="-236434386#2" fromLane="0" toLane="0"/>
    <connection from="-236434387#1" to="236434681#0" fromLane="0" toLane="0"/>
    <connection from="-236434387#1" to="236434387#0" fromLane="0" toLane="0"/>

    <connection from="-236434681#3" to="236434387#0" fromLane="0" toLane="0"/>
    <connection from="-236434681#3" to="-236434386#2" fromLane="0" toLane="0"/>
    <connection from="-236434681#3" to="236434681#0" fromLane="0" toLane="0"/>

    <connection from="-23648805#1" to="231940317#5" fromLane="0" toLane="0"/>
    <connection from="-23648805#1" to="-231940317#4" fromLane="0" toLane="0"/>
    <connection from="-23648805#1" to="23648805#0" fromLane="0" toLane="0"/>

    <connection from="-23649013" to="23649013" fromLane="0" toLane="0"/>

    <connection from="-23649025#0" to="23649025#0" fromLane="0" toLane="0"/>

    <connection from="-23649025#2" to="-23649025#0" fromLane="0" toLane="0"/>
    <connection from="-23649025#2" to="-23649027#1" fromLane="0" toLane="0"/>
    <connection from="-23649025#2" to="23649025#1" fromLane="0" toLane="0"/>

    <connection from="-23649027#1" to="-231940317#0" fromLane="0" toLane="0"/>
    <connection from="-23649027#1" to="231940317#1" fromLane="0" toLane="0"/>
    <connection from="-23649027#1" to="23649027#0" fromLane="0" toLane="0"/>

    <connection from="-23649061" to="23050298#4" fromLane="0" toLane="1"/>
    <connection from="-23649061" to="23649061" fromLane="0" toLane="0"/>

    <connection from="-23785501#2" to="-23125589#0" fromLane="0" toLane="0"/>
    <connection from="-23785501#2" to="23125589#1" fromLane="0" toLane="0"/>
    <connection from="-23785501#2" to="23785501#0" fromLane="0" toLane="0"/>

    <connection from="-23785503#5" to="236238100#2" fromLane="0" toLane="0"/>
    <connection from="-23785503#5" to="236238100#2" fromLane="0" toLane="1"/>
    <connection from="-23785503#5" to="982816379#4" fromLane="0" toLane="1"/>
    <connection from="-23785503#5" to="982816379#4" fromLane="0" toLane="2"/>
    <connection from="-23785503#5" to="23785503#3" fromLane="0" toLane="0"/>

    <connection from="-241113068#1" to="-236434387#1" fromLane="0" toLane="0"/>
    <connection from="-241113068#1" to="-23049910#3" fromLane="0" toLane="0"/>
    <connection from="-241113068#1" to="241113068#0" fromLane="0" toLane="0"/>

    <connection from="-242073870#1" to="-1117820481#0" fromLane="0" toLane="0"/>
    <connection from="-242073870#1" to="1117820481#1" fromLane="0" toLane="0"/>
    <connection from="-242073870#1" to="242073870#0" fromLane="0" toLane="0"/>

    <connection from="-250284752#1" to="252334761#2" fromLane="0" toLane="0"/>
    <connection from="-250284752#1" to="-23050189#1" fromLane="0" toLane="0"/>
    <connection from="-250284752#1" to="-252334761#1" fromLane="0" toLane="0"/>
    <connection from="-250284752#1" to="250284752#0" fromLane="0" toLane="0"/>

    <connection from="-250476465#0" to="37971578" fromLane="0" toLane="1"/>
    <connection from="-250476465#0" to="250476465#0" fromLane="0" toLane="0"/>

    <connection from="-250476465#1" to="23124137#0" fromLane="0" toLane="0"/>
    <connection from="-250476465#1" to="-250476465#0" fromLane="0" toLane="0"/>
    <connection from="-250476465#1" to="250476465#1" fromLane="0" toLane="0"/>

    <connection from="-250476471" to="23050194#0" fromLane="0" toLane="1"/>
    <connection from="-250476471" to="669207789" fromLane="0" toLane="0"/>

    <connection from="-252334761#1" to="27014190#0" fromLane="0" toLane="0"/>
    <connection from="-252334761#1" to="-85514872#2" fromLane="0" toLane="0"/>
    <connection from="-252334761#1" to="-1117820481#4" fromLane="0" toLane="0"/>
    <connection from="-252334761#1" to="23050051#1" fromLane="0" toLane="0"/>

    <connection from="-252334761#3" to="-23050189#1" fromLane="0" toLane="0"/>
    <connection from="-252334761#3" to="-252334761#1" fromLane="0" toLane="0"/>
    <connection from="-252334761#3" to="250284752#0" fromLane="0" toLane="0"/>
    <connection from="-252334761#3" to="252334761#2" fromLane="0" toLane="0"/>

    <connection from="-252342142#2" to="-982816371#1" fromLane="0" toLane="0"/>
    <connection from="-252342142#2" to="670595370#0" fromLane="0" toLane="1"/>
    <connection from="-252342142#2" to="252342142#0" fromLane="0" toLane="0"/>

    <connection from="-252430463" to="252430463" fromLane="0" toLane="0"/>

    <connection from="-263391556" to="23785454" fromLane="0" toLane="0"/>
    <connection from="-263391556" to="263391556" fromLane="0" toLane="0"/>

    <connection from="-27014190#3" to="-85514872#2" fromLane="0" toLane="0"/>
    <connection from="-27014190#3" to="-1117820481#4" fromLane="0" toLane="0"/>
    <connection from="-27014190#3" to="23050051#1" fromLane="0" toLane="0"/>
    <connection from="-27014190#3" to="27014190#0" fromLane="0" toLane="0"/>

    <connection from="-280523170" to="280523170" fromLane="0" toLane="0"/>

    <connection from="-280805040#0" to="23050201#0" fromLane="0" toLane="0"/>
    <connection from="-280805040#0" to="280805040#0" fromLane="0" toLane="0"/>

    <connection from="-280805040#1" to="23050682" fromLane="0" toLane="0"/>
    <connection from="-280805040#1" to="-280805040#0" fromLane="0" toLane="0"/>
    <connection from="-280805040#1" to="280805040#1" fromLane="0" toLane="0"/>

    <connection from="-280805040#2" to="-23050740" fromLane="0" toLane="0"/>
    <connection from="-280805040#2" to="-280805040#1" fromLane="0" toLane="0"/>
    <connection from="-280805040#2" to="280805040#2" fromLane="0" toLane="0"/>

    <connection from="-292083304#1" to="-23050190#3" fromLane="0" toLane="0"/>
    <connection from="-292083304#1" to="-23123780#1" fromLane="0" toLane="0"/>
    <connection from="-292083304#1" to="23123951#0" fromLane="0" toLane="1"/>
    <connection from="-292083304#1" to="292083304#0" fromLane="0" toLane="0"/>

    <connection from="-292083304#2" to="-292083304#1" fromLane="0" toLane="0"/>
    <connection from="-292083304#2" to="292083304#2" fromLane="0" toLane="0"/>

    <connection from="-292083304#6" to="-23050192#1" fromLane="0" toLane="0"/>
    <connection from="-292083304#6" to="-292083304#2" fromLane="0" toLane="0"/>
    <connection from="-292083304#6" to="292083304#3" fromLane="0" toLane="0"/>

    <connection from="-294717387#1" to="242739697#0" fromLane="0" toLane="0"/>

    <connection from="-309155262" to="-231940317#5" fromLane="0" toLane="0"/>

    <connection from="-384212968#1" to="263170652#0" fromLane="0" toLane="0"/>
    <connection from="-384212968#1" to="384212969#0" fromLane="0" toLane="0"/>
    <connection from="-384212968#1" to="384212969#0" fromLane="0" toLane="1"/>
    <connection from="-384212968#1" to="450554041#0" fromLane="0" toLane="0"/>

    <connection from="-384213540#2" to="23049568#3" fromLane="0" toLane="0"/>
    <connection from="-384213540#2" to="384213540#0" fromLane="0" toLane="0"/>

    <connection from="-411424155#1" to="-982823815" fromLane="0" toLane="0"/>
    <connection from="-411424155#1" to="-982823815" fromLane="0" toLane="1"/>

    <connection from="-450554039#1" to="450554042#0" fromLane="0" toLane="0"/>
    <connection from="-450554039#1" to="450554042#0" fromLane="1" toLane="1"/>
    <connection from="-450554039#1" to="450554042#0" fromLane="1" toLane="2"/>
    <connection from="-450554039#1" to="226276377#0" fromLane="1" toLane="1"/>

    <connection from="-541379602#2" to="-241113068#1" fromLane="0" toLane="0"/>
    <connection from="-541379602#2" to="-541379612#3" fromLane="0" toLane="0"/>
    <connection from="-541379602#2" to="541379602#0" fromLane="0" toLane="0"/>

    <connection from="-541379612#3" to="894313712" fromLane="0" toLane="0"/>
    <connection from="-541379612#3" to="1102792456#0" fromLane="0" toLane="0"/>
    <connection from="-541379612#3" to="23049907" fromLane="0" toLane="0"/>

    <connection from="-612963616#1" to="982816373#0" fromLane="0" toLane="0"/>
    <connection from="-612963616#1" to="612963616#0" fromLane="0" toLane="0"/>

    <connection from="-62218070#1" to="62218070#0" fromLane="0" toLane="0"/>

    <connection from="-661251539" to="39907424" fromLane="0" toLane="0"/>

    <connection from="-661251543" to="85315405" fromLane="0" toLane="0"/>
    <connection from="-661251543" to="-85315404#0" fromLane="0" toLane="0"/>
    <connection from="-661251543" to="85315404#1" fromLane="0" toLane="0"/>

    <connection from="-661251544" to="-280805040#0" fromLane="0" toLane="0"/>
    <connection from="-661251544" to="280805040#1" fromLane="0" toLane="0"/>
    <connection from="-661251544" to="23050682" fromLane="0" toLane="0"/>

    <connection from="-667762612" to="-23125589#1" fromLane="0" toLane="0"/>
    <connection from="-667762612" to="23785455#0" fromLane="0" toLane="0"/>
    <connection from="-667762612" to="23125589#2" fromLane="0" toLane="0"/>

    <connection from="-671891042#1" to="-411424155#1" fromLane="0" toLane="0"/>

    <connection from="-671891047#2" to="-450554039#1" fromLane="0" toLane="0"/>
    <connection from="-671891047#2" to="-1380801989#4" fromLane="0" toLane="0"/>
    <connection from="-671891047#2" to="671891044#1" fromLane="1" toLane="1"/>
    <connection from="-671891047#2" to="671891047#0" fromLane="1" toLane="0"/>

    <connection from="-671891070" to="-671891071#2" fromLane="0" toLane="0"/>
    <connection from="-671891070" to="-671891071#2" fromLane="1" toLane="1"/>

    <connection from="-671891071#2" to="-671891042#1" fromLane="0" toLane="0"/>
    <connection from="-671891071#2" to="-671910103#1" fromLane="0" toLane="0"/>
    <connection from="-671891071#2" to="-671910103#1" fromLane="1" toLane="1"/>
    <connection from="-671891071#2" to="23049613#0" fromLane="1" toLane="1"/>
    <connection from="-671891071#2" to="671891071#0" fromLane="1" toLane="1"/>

    <connection from="-671910103#1" to="-854181380" fromLane="0" toLane="0"/>
    <connection from="-671910103#1" to="-854181380" fromLane="1" toLane="1"/>
    <connection from="-671910103#1" to="671910103#0" fromLane="1" toLane="2"/>

    <connection from="-681503408#1" to="661251541#0" fromLane="0" toLane="0"/>

    <connection from="-751850413#1" to="85315404#0" fromLane="0" toLane="0"/>
    <connection from="-751850413#1" to="-23050678#4" fromLane="0" toLane="0"/>